n1
  

 47 50  0  0  1  0  0  0  0  0999 V2000
    4.8604   -0.8342   -2.9260 C   0  0  0
    4.7998   -0.1858   -1.5381 C   0  0  0
    3.7434    0.9260   -1.5554 C   0  0  0
    4.5032   -1.2276   -0.4416 C   0  0  1
    5.6064   -2.2625   -0.3436 C   0  0  0
    6.6936   -2.1032    0.1928 O   0  0  0
    5.2496   -3.4154   -0.9621 O   0  0  0
    4.4820   -0.5739    0.8857 N   0  0  0
    3.4333   -1.1063    2.1053 S   0  0  0
    3.3544   -2.5533    2.0764 O   0  0  0
    3.7554   -0.4088    3.3346 O   0  0  0
    1.8849   -0.4550    1.5398 C   0  0  0
    0.9407   -1.3128    0.9705 C   0  0  0
   -0.2899   -0.8126    0.5242 C   0  0  0
    1.6435    0.9135    1.7061 C   0  0  0
    0.4099    1.3713    1.2475 C   0  0  0
   -0.5596    0.5618    0.6644 C   0  0  0
   -0.0197    2.6624    1.3019 O   0  0  0
   -1.2664    2.6942    0.7554 C   0  0  0
   -1.6505    1.4234    0.3446 C   0  0  0
   -2.9198    1.2602   -0.2486 C   0  0  0
   -3.7481    2.3881   -0.4020 C   0  0  0
   -3.3150    3.6533    0.0293 C   0  0  0
   -2.0583    3.8306    0.6196 C   0  0  0
   -5.0299    2.2580   -0.9944 N   0  0  0
   -5.6475    1.1289   -1.4814 C   0  0  0
   -6.8376    1.4205   -1.9537 N   0  0  0
   -6.9199    2.7597   -1.7371 C   0  0  0
   -5.8575    3.3198   -1.1605 N   0  0  0
    3.5444   -1.7233   -0.6289 H   0  0  0
    5.6807   -1.5556   -2.9935 H   0  0  0
    3.9261   -1.3553   -3.1612 H   0  0  0
    5.0303   -0.0789   -3.7010 H   0  0  0
    5.7752    0.2804   -1.3444 H   0  0  0
    3.7485    1.4949   -0.6206 H   0  0  0
    3.9395    1.6361   -2.3661 H   0  0  0
    2.7383    0.5159   -1.7017 H   0  0  0
    5.9705   -4.0768   -0.8944 H   0  0  0
    5.2523    0.0618    1.1207 H   0  0  0
    1.1408   -2.3747    0.8552 H   0  0  0
   -1.0192   -1.4819    0.0771 H   0  0  0
    2.3649    1.5889    2.1501 H   0  0  0
   -3.2183    0.2681   -0.5686 H   0  0  0
   -3.9439    4.5344   -0.0825 H   0  0  0
   -1.7205    4.8047    0.9538 H   0  0  0
   -5.2065    0.1425   -1.4723 H   0  0  0
   -7.7824    3.3509   -2.0077 H   0  0  0
  1  2  1  0
  2  3  1  0
  4  2  1  6
  4  5  1  0
  4  8  1  0
  5  6  2  0
  5  7  1  0
  8  9  1  0
  9 10  2  0
  9 11  2  0
  9 12  1  0
 12 13  1  0
 12 15  2  0
 13 14  2  0
 14 17  1  0
 15 16  1  0
 16 17  2  0
 16 18  1  0
 17 20  1  0
 18 19  1  0
 19 24  1  0
 19 20  2  0
 20 21  1  0
 21 22  2  0
 22 23  1  0
 22 25  1  0
 23 24  2  0
 25 29  1  0
 25 26  1  0
 26 27  2  0
 27 28  1  0
 28 29  2  0
  1 31  1  0
  1 32  1  0
  1 33  1  0
  2 34  1  0
  3 35  1  0
  3 36  1  0
  3 37  1  0
  4 30  1  0
  7 38  1  0
  8 39  1  0
 13 40  1  0
 14 41  1  0
 15 42  1  0
 21 43  1  0
 23 44  1  0
 24 45  1  0
 26 46  1  0
 28 47  1  0
M  END
>  <CMPD_CHEMBLID>
CHEMBL1935278

>  <COMPOUND_KEY>
11

>  <MOLWEIGHT>
414.44

>  <ALOGP>
2.6

>  <PSA>
135.69

>  <STANDARD_VALUE>
13

>  <IC50>
1.886056648

$$$$
n2
  

 48 51  0  0  1  0  0  0  0  0999 V2000
    4.8832   -0.8350   -2.9178 C   0  0  0
    4.8167   -0.1822   -1.5323 C   0  0  0
    3.7549    0.9243   -1.5555 C   0  0  0
    4.5230   -1.2216   -0.4328 C   0  0  1
    5.6310   -2.2510   -0.3292 C   0  0  0
    6.7165   -2.0846    0.2087 O   0  0  0
    5.2809   -3.4076   -0.9444 O   0  0  0
    4.4963   -0.5636    0.8922 N   0  0  0
    3.4481   -1.0970    2.1118 S   0  0  0
    3.3765   -2.5444    2.0878 O   0  0  0
    3.7646   -0.3936    3.3392 O   0  0  0
    1.8974   -0.4553    1.5414 C   0  0  0
    0.9586   -1.3198    0.9732 C   0  0  0
   -0.2736   -0.8274    0.5231 C   0  0  0
    1.6488    0.9124    1.7028 C   0  0  0
    0.4137    1.3624    1.2406 C   0  0  0
   -0.5506    0.5461    0.6584 C   0  0  0
   -0.0227    2.6515    1.2901 O   0  0  0
   -1.2686    2.6750    0.7412 C   0  0  0
   -1.6453    1.4011    0.3339 C   0  0  0
   -2.9129    1.2295   -0.2610 C   0  0  0
   -3.7487    2.3513   -0.4207 C   0  0  0
   -3.3209    3.6199    0.0082 C   0  0  0
   -2.0662    3.8064    0.6003 C   0  0  0
   -5.0339    2.2140   -1.0170 N   0  0  0
   -5.6301    1.0648   -1.4979 C   0  0  0
   -6.8664    1.4220   -1.9796 C   0  0  0
   -6.9445    2.8017   -1.7547 C   0  0  0
   -5.8485    3.2917   -1.1759 N   0  0  0
    3.5670   -1.7226   -0.6201 H   0  0  0
    5.7070   -1.5527   -2.9813 H   0  0  0
    3.9519   -1.3615   -3.1531 H   0  0  0
    5.0508   -0.0816   -3.6951 H   0  0  0
    5.7894    0.2894   -1.3383 H   0  0  0
    3.7554    1.4964   -0.6226 H   0  0  0
    3.9491    1.6327   -2.3682 H   0  0  0
    2.7521    0.5088   -1.7023 H   0  0  0
    6.0049   -4.0653   -0.8731 H   0  0  0
    5.2630    0.0768    1.1264 H   0  0  0
    1.1644   -2.3811    0.8617 H   0  0  0
   -0.9988   -1.5017    0.0769 H   0  0  0
    2.3659    1.5930    2.1460 H   0  0  0
   -3.2030    0.2341   -0.5774 H   0  0  0
   -3.9530    4.4984   -0.1068 H   0  0  0
   -1.7346    4.7834    0.9317 H   0  0  0
   -5.1489    0.0983   -1.4661 H   0  0  0
   -7.6012    0.7701   -2.4285 H   0  0  0
   -7.7559    3.4764   -1.9879 H   0  0  0
  1  2  1  0
  2  3  1  0
  4  2  1  6
  4  5  1  0
  4  8  1  0
  5  6  2  0
  5  7  1  0
  8  9  1  0
  9 10  2  0
  9 11  2  0
  9 12  1  0
 12 13  1  0
 12 15  2  0
 13 14  2  0
 14 17  1  0
 15 16  1  0
 16 17  2  0
 16 18  1  0
 17 20  1  0
 18 19  1  0
 19 24  1  0
 19 20  2  0
 20 21  1  0
 21 22  2  0
 22 23  1  0
 22 25  1  0
 23 24  2  0
 25 29  1  0
 25 26  1  0
 26 27  2  0
 27 28  1  0
 28 29  2  0
  1 31  1  0
  1 32  1  0
  1 33  1  0
  2 34  1  0
  3 35  1  0
  3 36  1  0
  3 37  1  0
  4 30  1  0
  7 38  1  0
  8 39  1  0
 13 40  1  0
 14 41  1  0
 15 42  1  0
 21 43  1  0
 23 44  1  0
 24 45  1  0
 26 46  1  0
 27 47  1  0
 28 48  1  0
M  END
>  <CMPD_CHEMBLID>
CHEMBL1935279

>  <COMPOUND_KEY>
12

>  <MOLWEIGHT>
413.45

>  <ALOGP>
3.28

>  <PSA>
122.8

>  <STANDARD_VALUE>
15

>  <IC50>
1.823908741

$$$$
n3
  

 51 54  0  0  1  0  0  0  0  0999 V2000
    5.6613   -1.2521   -3.1189 C   0  0  0
    5.7173   -0.5832   -1.7406 C   0  0  0
    4.6642    0.5304   -1.6861 C   0  0  0
    5.5124   -1.6081   -0.6078 C   0  0  1
    6.6190   -2.6439   -0.5869 C   0  0  0
    7.7474   -2.4790   -0.1455 O   0  0  0
    6.2108   -3.8049   -1.1563 O   0  0  0
    5.6027   -0.9350    0.7068 N   0  0  0
    4.6589   -1.4470    2.0174 S   0  0  0
    4.5768   -2.8941    2.0168 O   0  0  0
    5.0830   -0.7320    3.2050 O   0  0  0
    3.0693   -0.8010    1.5733 C   0  0  0
    2.0802   -1.6652    1.0974 C   0  0  0
    0.8173   -1.1691    0.7477 C   0  0  0
    2.8437    0.5703    1.7388 C   0  0  0
    1.5766    1.0238    1.3777 C   0  0  0
    0.5612    0.2078    0.8894 C   0  0  0
    1.1539    2.3165    1.4484 O   0  0  0
   -0.1338    2.3426    1.0071 C   0  0  0
   -0.5517    1.0668    0.6486 C   0  0  0
   -1.8663    0.8975    0.1655 C   0  0  0
   -2.7057    2.0234    0.0638 C   0  0  0
   -2.2352    3.2938    0.4394 C   0  0  0
   -0.9336    3.4780    0.9207 C   0  0  0
   -4.0378    1.8886   -0.4197 N   0  0  0
   -4.6784    0.7398   -0.8336 C   0  0  0
   -5.9479    1.1015   -1.2124 C   0  0  0
   -6.0086    2.4925   -1.0006 C   0  0  0
   -4.8542    2.9700   -0.5212 N   0  0  0
   -7.1510    3.4007   -1.2439 C   0  0  0
   -7.5523    4.0285   -0.1088 F   0  0  0
   -6.8473    4.3695   -2.1454 F   0  0  0
   -8.2368    2.7445   -1.7297 F   0  0  0
    4.5409   -2.1045   -0.7070 H   0  0  0
    6.4724   -1.9761   -3.2439 H   0  0  0
    4.7102   -1.7746   -3.2676 H   0  0  0
    5.7665   -0.5086   -3.9165 H   0  0  0
    6.7059   -0.1163   -1.6359 H   0  0  0
    4.7478    1.1130   -0.7635 H   0  0  0
    4.7925    1.2282   -2.5208 H   0  0  0
    3.6500    0.1204   -1.7419 H   0  0  0
    6.9343   -4.4668   -1.1392 H   0  0  0
    6.3904   -0.2974    0.8672 H   0  0  0
    2.2693   -2.7291    0.9816 H   0  0  0
    0.0526   -1.8433    0.3728 H   0  0  0
    3.6001    1.2507    2.1112 H   0  0  0
   -2.1882   -0.0995   -0.1130 H   0  0  0
   -2.8690    4.1757    0.3680 H   0  0  0
   -0.5689    4.4563    1.2109 H   0  0  0
   -4.2035   -0.2304   -0.8315 H   0  0  0
   -6.7201    0.4460   -1.5893 H   0  0  0
  1  2  1  0
  2  3  1  0
  4  2  1  6
  4  5  1  0
  4  8  1  0
  5  6  2  0
  5  7  1  0
  8  9  1  0
  9 10  2  0
  9 11  2  0
  9 12  1  0
 12 13  1  0
 12 15  2  0
 13 14  2  0
 14 17  1  0
 15 16  1  0
 16 17  2  0
 16 18  1  0
 17 20  1  0
 18 19  1  0
 19 24  1  0
 19 20  2  0
 20 21  1  0
 21 22  2  0
 22 23  1  0
 22 25  1  0
 23 24  2  0
 25 29  1  0
 25 26  1  0
 26 27  2  0
 27 28  1  0
 28 29  2  0
 28 30  1  0
 30 31  1  0
 30 32  1  0
 30 33  1  0
  1 35  1  0
  1 36  1  0
  1 37  1  0
  2 38  1  0
  3 39  1  0
  3 40  1  0
  3 41  1  0
  4 34  1  0
  7 42  1  0
  8 43  1  0
 13 44  1  0
 14 45  1  0
 15 46  1  0
 21 47  1  0
 23 48  1  0
 24 49  1  0
 26 50  1  0
 27 51  1  0
M  END
>  <CMPD_CHEMBLID>
CHEMBL1935280

>  <COMPOUND_KEY>
13

>  <MOLWEIGHT>
481.44

>  <ALOGP>
4.65

>  <PSA>
122.8

>  <STANDARD_VALUE>
0.7

>  <IC50>
3.15490196

$$$$
n4
  

 55 58  0  0  1  0  0  0  0  0999 V2000
    4.8007   -3.9899    0.5805 C   0  0  0
    5.3221   -2.5991    0.2013 C   0  0  0
    6.3351   -2.7424   -0.9417 C   0  0  0
    4.1720   -1.6499   -0.1883 C   0  0  1
    3.2171   -1.4287    0.9676 C   0  0  0
    3.4139   -0.6977    1.9279 O   0  0  0
    2.0908   -2.1686    0.8199 O   0  0  0
    4.7180   -0.3068   -0.4956 N   0  0  0
    4.1680    0.5766   -1.8352 S   0  0  0
    4.2262   -0.2669   -3.0128 O   0  0  0
    4.8071    1.8776   -1.8303 O   0  0  0
    2.4627    0.8356   -1.4296 C   0  0  0
    1.4730    0.1164   -2.1040 C   0  0  0
    0.1213    0.3109   -1.7905 C   0  0  0
    2.1566    1.7798   -0.4427 C   0  0  0
    0.8021    1.9416   -0.1591 C   0  0  0
   -0.2207    1.2434   -0.7932 C   0  0  0
    0.2887    2.7958    0.7696 O   0  0  0
   -1.0648    2.6538    0.7386 C   0  0  0
   -1.4338    1.7063   -0.2049 C   0  0  0
   -2.8069    1.4313   -0.3721 C   0  0  0
   -3.7839    2.0984    0.4032 C   0  0  0
   -3.3276    3.0519    1.3359 C   0  0  0
   -1.9699    3.3498    1.5286 C   0  0  0
   -5.1347    1.8247    0.2263 N   0  0  0
   -5.6037    0.4456    0.0484 C   0  0  0
   -6.3208   -0.0089    1.3285 C   0  0  0
   -7.3957    0.9134    1.7160 N   0  0  0
   -6.8826    2.2800    1.8786 C   0  0  0
   -6.1909    2.7681    0.6022 C   0  0  0
    3.6267   -2.0414   -1.0543 H   0  0  0
    5.6307   -4.6665    0.8117 H   0  0  0
    4.1619   -3.9477    1.4682 H   0  0  0
    4.2216   -4.4327   -0.2369 H   0  0  0
    5.8526   -2.1915    1.0723 H   0  0  0
    7.1342   -3.4395   -0.6674 H   0  0  0
    5.8548   -3.1197   -1.8510 H   0  0  0
    6.8081   -1.7842   -1.1794 H   0  0  0
    1.4808   -2.0178    1.5731 H   0  0  0
    5.1957    0.1884    0.2665 H   0  0  0
    1.7271   -0.6090   -2.8722 H   0  0  0
   -0.6454   -0.2544   -2.3124 H   0  0  0
    2.9143    2.3465    0.0851 H   0  0  0
   -3.1007    0.7131   -1.1331 H   0  0  0
   -4.0349    3.5825    1.9704 H   0  0  0
   -1.6478    4.0824    2.2591 H   0  0  0
   -4.8010   -0.2644   -0.1746 H   0  0  0
   -6.2993    0.4132   -0.7996 H   0  0  0
   -5.5997   -0.0974    2.1508 H   0  0  0
   -6.7500   -1.0035    1.1664 H   0  0  0
   -7.8074    0.6011    2.5949 H   0  0  0
   -6.1900    2.3159    2.7283 H   0  0  0
   -7.7198    2.9459    2.1132 H   0  0  0
   -6.9248    2.8092   -0.2138 H   0  0  0
   -5.8270    3.7945    0.7200 H   0  0  0
  1  2  1  0
  2  3  1  0
  4  2  1  1
  4  5  1  0
  4  8  1  0
  5  6  2  0
  5  7  1  0
  8  9  1  0
  9 10  2  0
  9 11  2  0
  9 12  1  0
 12 13  1  0
 12 15  2  0
 13 14  2  0
 14 17  1  0
 15 16  1  0
 16 17  2  0
 16 18  1  0
 17 20  1  0
 18 19  1  0
 19 24  1  0
 19 20  2  0
 20 21  1  0
 21 22  2  0
 22 23  1  0
 22 25  1  0
 23 24  2  0
 25 30  1  0
 25 26  1  0
 26 27  1  0
 27 28  1  0
 28 29  1  0
 29 30  1  0
  1 32  1  0
  1 33  1  0
  1 34  1  0
  2 35  1  0
  3 36  1  0
  3 37  1  0
  3 38  1  0
  4 31  1  0
  7 39  1  0
  8 40  1  0
 13 41  1  0
 14 42  1  0
 15 43  1  0
 21 44  1  0
 23 45  1  0
 24 46  1  0
 26 47  1  0
 26 48  1  0
 27 49  1  0
 27 50  1  0
 28 51  1  0
 29 52  1  0
 29 53  1  0
 30 54  1  0
 30 55  1  0
M  END
>  <CMPD_CHEMBLID>
CHEMBL1935281

>  <COMPOUND_KEY>
14

>  <MOLWEIGHT>
431.51

>  <ALOGP>
-0.07

>  <PSA>
120.26

>  <STANDARD_VALUE>
23

>  <IC50>
1.638272164

$$$$
n6
  

 54 57  0  0  1  0  0  0  0  0999 V2000
    4.9709   -3.8289    1.1060 C   0  0  0
    5.4136   -2.5767    0.3405 C   0  0  0
    6.2474   -3.0049   -0.8738 C   0  0  0
    4.2072   -1.7176   -0.0860 C   0  0  1
    3.4320   -1.2118    1.1140 C   0  0  0
    3.7606   -0.2825    1.8377 O   0  0  0
    2.3052   -1.9394    1.3104 O   0  0  0
    4.6856   -0.4955   -0.7748 N   0  0  0
    3.9325    0.0649   -2.1877 S   0  0  0
    3.8254   -1.0303   -3.1316 O   0  0  0
    4.5497    1.3164   -2.5803 O   0  0  0
    2.3032    0.4503   -1.6075 C   0  0  0
    1.2331   -0.3826   -1.9429 C   0  0  0
   -0.0594   -0.0894   -1.4882 C   0  0  0
    2.1357    1.6046   -0.8337 C   0  0  0
    0.8365    1.8591   -0.3997 C   0  0  0
   -0.2607    1.0567   -0.6963 C   0  0  0
    0.4564    2.9173    0.3693 O   0  0  0
   -0.8850    2.8035    0.5717 C   0  0  0
   -1.3787    1.6714   -0.0602 C   0  0  0
   -2.7580    1.3965    0.0444 C   0  0  0
   -3.6150    2.2482    0.7800 C   0  0  0
   -3.0384    3.3840    1.3856 C   0  0  0
   -1.6708    3.6859    1.3013 C   0  0  0
   -4.9835    1.9696    0.8682 N   0  0  0
   -5.3893    0.6036    1.2314 C   0  0  0
   -6.8302    0.3575    0.7913 C   0  0  0
   -7.6992    1.3600    1.3225 O   0  0  0
   -7.3372    2.6496    0.8251 C   0  0  0
   -5.9247    3.0224    1.2688 C   0  0  0
    3.5441   -2.2867   -0.7469 H   0  0  0
    5.8340   -4.4523    1.3638 H   0  0  0
    4.4705   -3.5669    2.0434 H   0  0  0
    4.2822   -4.4359    0.5086 H   0  0  0
    6.0627   -1.9904    1.0048 H   0  0  0
    7.0866   -3.6377   -0.5652 H   0  0  0
    5.6419   -3.5719   -1.5893 H   0  0  0
    6.6684   -2.1395   -1.3952 H   0  0  0
    1.8121   -1.6038    2.0890 H   0  0  0
    5.2652    0.1519   -0.2280 H   0  0  0
    1.3790   -1.2722   -2.5497 H   0  0  0
   -0.8882   -0.7426   -1.7454 H   0  0  0
    2.9565    2.2607   -0.5698 H   0  0  0
   -3.1528    0.5293   -0.4777 H   0  0  0
   -3.6517    4.0677    1.9696 H   0  0  0
   -1.2523    4.5616    1.7830 H   0  0  0
   -5.3142    0.4994    2.3211 H   0  0  0
   -4.7588   -0.1682    0.7802 H   0  0  0
   -7.1729   -0.6134    1.1629 H   0  0  0
   -6.9162    0.3444   -0.3020 H   0  0  0
   -8.0556    3.3753    1.2192 H   0  0  0
   -7.4259    2.6545   -0.2681 H   0  0  0
   -5.6690    3.9845    0.8098 H   0  0  0
   -5.8981    3.1325    2.3598 H   0  0  0
  1  2  1  0
  2  3  1  0
  4  2  1  1
  4  5  1  0
  4  8  1  0
  5  6  2  0
  5  7  1  0
  8  9  1  0
  9 10  2  0
  9 11  2  0
  9 12  1  0
 12 13  1  0
 12 15  2  0
 13 14  2  0
 14 17  1  0
 15 16  1  0
 16 17  2  0
 16 18  1  0
 17 20  1  0
 18 19  1  0
 19 24  1  0
 19 20  2  0
 20 21  1  0
 21 22  2  0
 22 23  1  0
 22 25  1  0
 23 24  2  0
 25 30  1  0
 25 26  1  0
 26 27  1  0
 27 28  1  0
 28 29  1  0
 29 30  1  0
  1 32  1  0
  1 33  1  0
  1 34  1  0
  2 35  1  0
  3 36  1  0
  3 37  1  0
  3 38  1  0
  4 31  1  0
  7 39  1  0
  8 40  1  0
 13 41  1  0
 14 42  1  0
 15 43  1  0
 21 44  1  0
 23 45  1  0
 24 46  1  0
 26 47  1  0
 26 48  1  0
 27 49  1  0
 27 50  1  0
 29 51  1  0
 29 52  1  0
 30 53  1  0
 30 54  1  0
M  END
>  <CMPD_CHEMBLID>
CHEMBL1935283

>  <COMPOUND_KEY>
16

>  <MOLWEIGHT>
432.49

>  <ALOGP>
2.9

>  <PSA>
117.46

>  <STANDARD_VALUE>
2.2

>  <IC50>
2.657577319

$$$$
n7

  
 48 51  0  0  1  0  0  0  0  0999 V2000
    4.8508   -0.8770   -2.9245 C   0  0  0
    4.8062   -0.2182   -1.5410 C   0  0  0
    3.7593    0.9025   -1.5584 C   0  0  0
    4.5090   -1.2494   -0.4347 C   0  0  1
    5.6040   -2.2932   -0.3376 C   0  0  0
    6.6966   -2.1395    0.1894 O   0  0  0
    5.2325   -3.4473   -0.9449 O   0  0  0
    4.5037   -0.5861    0.8880 N   0  0  0
    3.4599   -1.1006    2.1193 S   0  0  0
    3.3688   -2.5470    2.1018 O   0  0  0
    3.7974   -0.3969    3.3410 O   0  0  0
    1.9127   -0.4404    1.5609 C   0  0  0
    0.9571   -1.2944    1.0048 C   0  0  0
   -0.2725   -0.7872    0.5642 C   0  0  0
    1.6839    0.9312    1.7194 C   0  0  0
    0.4507    1.3960    1.2668 C   0  0  0
   -0.5298    0.5903    0.6967 C   0  0  0
    0.0318    2.6910    1.3157 O   0  0  0
   -1.2189    2.7286    0.7788 C   0  0  0
   -1.6151    1.4588    0.3786 C   0  0  0
   -2.8903    1.3054   -0.2028 C   0  0  0
   -3.7225    2.4326   -0.3637 C   0  0  0
   -3.2679    3.6926    0.0630 C   0  0  0
   -2.0050    3.8682    0.6428 C   0  0  0
   -5.0483    2.3056   -0.9575 C   0  0  0
   -5.4318    1.2975   -1.8214 C   0  0  0
   -6.7233    1.4544   -2.2128 O   0  0  0
   -7.1827    2.5750   -1.6027 C   0  0  0
   -6.1977    3.1378   -0.8258 C   0  0  0
    3.5446   -1.7381   -0.6111 H   0  0  0
    5.6643   -1.6060   -2.9929 H   0  0  0
    3.9103   -1.3917   -3.1490 H   0  0  0
    5.0212   -0.1288   -3.7063 H   0  0  0
    5.7870    0.2410   -1.3580 H   0  0  0
    3.7762    1.4780   -0.6278 H   0  0  0
    3.9553    1.6051   -2.3757 H   0  0  0
    2.7496    0.5000   -1.6942 H   0  0  0
    5.9481   -4.1145   -0.8779 H   0  0  0
    5.2809    0.0450    1.1123 H   0  0  0
    1.1477   -2.3587    0.8955 H   0  0  0
   -1.0108   -1.4533    0.1271 H   0  0  0
    2.4141    1.6036    2.1533 H   0  0  0
   -3.2135    0.3142   -0.5077 H   0  0  0
   -3.8922    4.5764   -0.0572 H   0  0  0
   -1.6594    4.8428    0.9669 H   0  0  0
   -4.9312    0.4375   -2.2438 H   0  0  0
   -8.2085    2.8378   -1.8161 H   0  0  0
   -6.3027    4.0354   -0.2328 H   0  0  0
  1  2  1  0
  2  3  1  0
  4  2  1  6
  4  5  1  0
  4  8  1  0
  5  6  2  0
  5  7  1  0
  8  9  1  0
  9 10  2  0
  9 11  2  0
  9 12  1  0
 12 13  1  0
 12 15  2  0
 13 14  2  0
 14 17  1  0
 15 16  1  0
 16 17  2  0
 16 18  1  0
 17 20  1  0
 18 19  1  0
 19 24  1  0
 19 20  2  0
 20 21  1  0
 21 22  2  0
 22 23  1  0
 22 25  1  0
 23 24  2  0
 25 29  1  0
 25 26  2  0
 26 27  1  0
 27 28  1  0
 28 29  2  0
  1 31  1  0
  1 32  1  0
  1 33  1  0
  2 34  1  0
  3 35  1  0
  3 36  1  0
  3 37  1  0
  4 30  1  0
  7 38  1  0
  8 39  1  0
 13 40  1  0
 14 41  1  0
 15 42  1  0
 21 43  1  0
 23 44  1  0
 24 45  1  0
 26 46  1  0
 28 47  1  0
 29 48  1  0
M  END
>  <CMPD_CHEMBLID>
CHEMBL1935284

>  <COMPOUND_KEY>
19

>  <MOLWEIGHT>
413.44

>  <ALOGP>
3.68

>  <PSA>
118.13

>  <STANDARD_VALUE>
0.4

>  <IC50>
3.397940009

$$$$
n8

  
 51 54  0  0  1  0  0  0  0  0999 V2000
    5.3392   -0.8882   -2.9938 C   0  0  0
    5.3129   -0.1859   -1.6314 C   0  0  0
    4.2221    0.8921   -1.6496 C   0  0  0
    5.0929   -1.1905   -0.4834 C   0  0  1
    6.2313   -2.1871   -0.3896 C   0  0  0
    7.3333   -1.9735    0.0953 O   0  0  0
    5.8869   -3.3744   -0.9469 O   0  0  0
    5.1036   -0.4843    0.8168 N   0  0  0
    4.1211   -0.9976    2.0981 S   0  0  0
    4.0873   -2.4462    2.1300 O   0  0  0
    4.4691   -0.2409    3.2846 O   0  0  0
    2.5317   -0.4170    1.5705 C   0  0  0
    1.5937   -1.3255    1.0743 C   0  0  0
    0.3314   -0.8814    0.6586 C   0  0  0
    2.2537    0.9493    1.6921 C   0  0  0
    0.9892    1.3505    1.2658 C   0  0  0
    0.0239    0.4888    0.7549 C   0  0  0
    0.5210    2.6294    1.2862 O   0  0  0
   -0.7463    2.6004    0.7895 C   0  0  0
   -1.1047    1.3033    0.4456 C   0  0  0
   -2.3906    1.0824   -0.0885 C   0  0  0
   -3.2751    2.1674   -0.2607 C   0  0  0
   -2.8528    3.4581    0.1069 C   0  0  0
   -1.5804    3.7032    0.6396 C   0  0  0
   -4.6091    1.9382   -0.8147 C   0  0  0
   -5.4087    3.0399   -0.9533 O   0  0  0
   -6.5936    2.6238   -1.4786 C   0  0  0
   -7.6076    3.6690   -1.7094 C   0  0  0
   -6.5703    1.2630   -1.6821 C   0  0  0
   -5.2944    0.8209   -1.2555 C   0  0  0
    4.1437   -1.7220   -0.6117 H   0  0  0
    6.1785   -1.5869   -3.0661 H   0  0  0
    4.4132   -1.4462   -3.1701 H   0  0  0
    5.4543   -0.1603   -3.8044 H   0  0  0
    6.2800    0.3169   -1.4961 H   0  0  0
    4.2461    1.4986   -0.7389 H   0  0  0
    4.3635    1.5742   -2.4950 H   0  0  0
    3.2255    0.4464   -1.7385 H   0  0  0
    6.6305   -4.0106   -0.8826 H   0  0  0
    5.8618    0.1837    0.9948 H   0  0  0
    1.8229   -2.3847    0.9932 H   0  0  0
   -0.3934   -1.5899    0.2681 H   0  0  0
    2.9701    1.6637    2.0795 H   0  0  0
   -2.6815    0.0716   -0.3609 H   0  0  0
   -3.5173    4.3120   -0.0162 H   0  0  0
   -1.2647    4.7012    0.9198 H   0  0  0
   -7.8656    4.1666   -0.7695 H   0  0  0
   -7.2294    4.4223   -2.4071 H   0  0  0
   -8.5229    3.2427   -2.1315 H   0  0  0
   -7.3719    0.6621   -2.0874 H   0  0  0
   -4.9259   -0.1950   -1.2710 H   0  0  0
  1  2  1  0
  2  3  1  0
  4  2  1  6
  4  5  1  0
  4  8  1  0
  5  6  2  0
  5  7  1  0
  8  9  1  0
  9 10  2  0
  9 11  2  0
  9 12  1  0
 12 13  1  0
 12 15  2  0
 13 14  2  0
 14 17  1  0
 15 16  1  0
 16 17  2  0
 16 18  1  0
 17 20  1  0
 18 19  1  0
 19 24  1  0
 19 20  2  0
 20 21  1  0
 21 22  2  0
 22 23  1  0
 22 25  1  0
 23 24  2  0
 25 30  2  0
 25 26  1  0
 26 27  1  0
 27 28  1  0
 27 29  2  0
 29 30  1  0
  1 32  1  0
  1 33  1  0
  1 34  1  0
  2 35  1  0
  3 36  1  0
  3 37  1  0
  3 38  1  0
  4 31  1  0
  7 39  1  0
  8 40  1  0
 13 41  1  0
 14 42  1  0
 15 43  1  0
 21 44  1  0
 23 45  1  0
 24 46  1  0
 28 47  1  0
 28 48  1  0
 28 49  1  0
 29 50  1  0
 30 51  1  0
M  END
>  <CMPD_CHEMBLID>
CHEMBL1935285

>  <COMPOUND_KEY>
20

>  <MOLWEIGHT>
427.47

>  <ALOGP>
4.11

>  <PSA>
118.13

>  <STANDARD_VALUE>
0.1

>  <IC50>
4

$$$$
n9

  
 48 51  0  0  1  0  0  0  0  0999 V2000
    5.3435   -0.8868   -2.9914 C   0  0  0
    5.3254   -0.2116   -1.6152 C   0  0  0
    4.2626    0.8941   -1.6187 C   0  0  0
    5.0718   -1.2331   -0.4892 C   0  0  1
    6.1837   -2.2602   -0.4082 C   0  0  0
    7.2873   -2.0847    0.0883 O   0  0  0
    5.8132   -3.4269   -0.9918 O   0  0  0
    5.0911   -0.5537    0.8251 N   0  0  0
    4.0867   -1.0674    2.0892 S   0  0  0
    4.0158   -2.5150    2.0914 O   0  0  0
    4.4454   -0.3439    3.2931 O   0  0  0
    2.5165   -0.4358    1.5629 C   0  0  0
    1.5592   -1.3098    1.0421 C   0  0  0
    0.3116   -0.8253    0.6272 C   0  0  0
    2.2724    0.9344    1.7104 C   0  0  0
    1.0216    1.3764    1.2840 C   0  0  0
    0.0384    0.5501    0.7493 C   0  0  0
    0.5860    2.6662    1.3273 O   0  0  0
   -0.6780    2.6796    0.8217 C   0  0  0
   -1.0669    1.3994    0.4492 C   0  0  0
   -2.3542    1.2222   -0.0977 C   0  0  0
   -3.2096    2.3328   -0.2536 C   0  0  0
   -2.7571    3.6045    0.1429 C   0  0  0
   -1.4827    3.8062    0.6889 C   0  0  0
   -4.5450    2.1490   -0.8210 C   0  0  0
   -5.3150    3.2727   -0.9422 O   0  0  0
   -6.5075    2.9005   -1.4837 C   0  0  0
   -7.7807    4.0083   -1.8099 Cl  0  0  0
   -6.5160    1.5436   -1.7144 C   0  0  0
   -5.2551    1.0591   -1.2888 C   0  0  0
    4.1102   -1.7375   -0.6346 H   0  0  0
    6.1653   -1.6051   -3.0723 H   0  0  0
    4.4050   -1.4173   -3.1850 H   0  0  0
    5.4829   -0.1460   -3.7862 H   0  0  0
    6.3040    0.2634   -1.4633 H   0  0  0
    4.2954    1.4813   -0.6958 H   0  0  0
    4.4272    1.5892   -2.4491 H   0  0  0
    3.2556    0.4759   -1.7232 H   0  0  0
    6.5399   -4.0830   -0.9354 H   0  0  0
    5.8648    0.0909    1.0215 H   0  0  0
    1.7619   -2.3727    0.9411 H   0  0  0
   -0.4282   -1.5070    0.2176 H   0  0  0
    3.0040    1.6224    2.1170 H   0  0  0
   -2.6686    0.2248   -0.3924 H   0  0  0
   -3.3985    4.4778    0.0329 H   0  0  0
   -1.1436    4.7899    0.9914 H   0  0  0
   -7.3284    0.9693   -2.1370 H   0  0  0
   -4.9130    0.0343   -1.3229 H   0  0  0
  1  2  1  0
  2  3  1  0
  4  2  1  6
  4  5  1  0
  4  8  1  0
  5  6  2  0
  5  7  1  0
  8  9  1  0
  9 10  2  0
  9 11  2  0
  9 12  1  0
 12 13  1  0
 12 15  2  0
 13 14  2  0
 14 17  1  0
 15 16  1  0
 16 17  2  0
 16 18  1  0
 17 20  1  0
 18 19  1  0
 19 24  1  0
 19 20  2  0
 20 21  1  0
 21 22  2  0
 22 23  1  0
 22 25  1  0
 23 24  2  0
 25 30  2  0
 25 26  1  0
 26 27  1  0
 27 28  1  0
 27 29  2  0
 29 30  1  0
  1 32  1  0
  1 33  1  0
  1 34  1  0
  2 35  1  0
  3 36  1  0
  3 37  1  0
  3 38  1  0
  4 31  1  0
  7 39  1  0
  8 40  1  0
 13 41  1  0
 14 42  1  0
 15 43  1  0
 21 44  1  0
 23 45  1  0
 24 46  1  0
 29 47  1  0
 30 48  1  0
M  END
>  <CMPD_CHEMBLID>
CHEMBL1935286

>  <COMPOUND_KEY>
21

>  <MOLWEIGHT>
447.89

>  <ALOGP>
4.43

>  <PSA>
118.13

>  <STANDARD_VALUE>
0.1

>  <IC50>
4

$$$$
n10

  
 48 51  0  0  1  0  0  0  0  0999 V2000
    4.9402   -0.7514   -2.9236 C   0  0  0
    4.8645   -0.1502   -1.5154 C   0  0  0
    3.8120    0.9654   -1.5080 C   0  0  0
    4.5509   -1.2274   -0.4586 C   0  0  1
    5.6495   -2.2691   -0.3822 C   0  0  0
    6.7306   -2.1320    0.1725 O   0  0  0
    5.2967   -3.3991   -1.0438 O   0  0  0
    4.5155   -0.6190    0.8898 N   0  0  0
    3.4498   -1.1883    2.0775 S   0  0  0
    3.3668   -2.6332    1.9990 O   0  0  0
    3.7587   -0.5336    3.3335 O   0  0  0
    1.9107   -0.5128    1.5149 C   0  0  0
    0.9713   -1.3475    0.9048 C   0  0  0
   -0.2518   -0.8282    0.4600 C   0  0  0
    1.6713    0.8502    1.7246 C   0  0  0
    0.4453    1.3276    1.2660 C   0  0  0
   -0.5190    0.5415    0.6433 C   0  0  0
    0.0188    2.6178    1.3588 O   0  0  0
   -1.2204    2.6721    0.7971 C   0  0  0
   -1.6023    1.4172    0.3393 C   0  0  0
   -2.8636    1.2832   -0.2740 C   0  0  0
   -3.6963    2.4134   -0.4121 C   0  0  0
   -3.2579    3.6572    0.0763 C   0  0  0
   -2.0087    3.8137    0.6898 C   0  0  0
   -5.0149    2.2635   -1.0458 C   0  0  0
   -5.9532    1.2633   -0.8590 C   0  0  0
   -7.1149    1.4394   -1.6653 C   0  0  0
   -7.0286    2.5636   -2.4531 C   0  0  0
   -5.5547    3.3962   -2.2212 S   0  0  0
    3.5930   -1.7130   -0.6743 H   0  0  0
    5.7589   -1.4731   -3.0055 H   0  0  0
    4.0072   -1.2608   -3.1879 H   0  0  0
    5.1221    0.0291   -3.6705 H   0  0  0
    5.8389    0.3056   -1.2941 H   0  0  0
    3.8073    1.5023   -0.5544 H   0  0  0
    4.0204    1.7019   -2.2917 H   0  0  0
    2.8075    0.5642   -1.6805 H   0  0  0
    6.0145   -4.0650   -0.9897 H   0  0  0
    5.2846    0.0060    1.1555 H   0  0  0
    1.1697   -2.4056    0.7560 H   0  0  0
   -0.9775   -1.4791   -0.0191 H   0  0  0
    2.3890    1.5076    2.2006 H   0  0  0
   -3.1782    0.3104   -0.6436 H   0  0  0
   -3.8950    4.5365   -0.0029 H   0  0  0
   -1.6766    4.7745    1.0648 H   0  0  0
   -5.8203    0.4399   -0.1678 H   0  0  0
   -7.9684    0.7738   -1.6671 H   0  0  0
   -7.7607    2.9342   -3.1568 H   0  0  0
  1  2  1  0
  2  3  1  0
  4  2  1  6
  4  5  1  0
  4  8  1  0
  5  6  2  0
  5  7  1  0
  8  9  1  0
  9 10  2  0
  9 11  2  0
  9 12  1  0
 12 13  1  0
 12 15  2  0
 13 14  2  0
 14 17  1  0
 15 16  1  0
 16 17  2  0
 16 18  1  0
 17 20  1  0
 18 19  1  0
 19 24  1  0
 19 20  2  0
 20 21  1  0
 21 22  2  0
 22 23  1  0
 22 25  1  0
 23 24  2  0
 25 29  1  0
 25 26  2  0
 26 27  1  0
 27 28  2  0
 28 29  1  0
  1 31  1  0
  1 32  1  0
  1 33  1  0
  2 34  1  0
  3 35  1  0
  3 36  1  0
  3 37  1  0
  4 30  1  0
  7 38  1  0
  8 39  1  0
 13 40  1  0
 14 41  1  0
 15 42  1  0
 21 43  1  0
 23 44  1  0
 24 45  1  0
 26 46  1  0
 27 47  1  0
 28 48  1  0
M  END
>  <CMPD_CHEMBLID>
CHEMBL1935287

>  <COMPOUND_KEY>
22

>  <MOLWEIGHT>
429.51

>  <ALOGP>
4.52

>  <PSA>
133.22

>  <STANDARD_VALUE>
0.2

>  <IC50>
3.698970004

$$$$
n11

  
 51 54  0  0  1  0  0  0  0  0999 V2000
    5.3500   -0.9787   -2.9518 C   0  0  0
    5.3458   -0.3024   -1.5760 C   0  0  0
    4.3227    0.8401   -1.5876 C   0  0  0
    5.0481   -1.3137   -0.4516 C   0  0  1
    6.1224   -2.3794   -0.3622 C   0  0  0
    7.2280   -2.2427    0.1422 O   0  0  0
    5.7152   -3.5326   -0.9480 O   0  0  0
    5.0820   -0.6346    0.8626 N   0  0  0
    4.0509   -1.1117    2.1195 S   0  0  0
    3.9288   -2.5559    2.1218 O   0  0  0
    4.4262   -0.4006    3.3257 O   0  0  0
    2.5078   -0.4253    1.5817 C   0  0  0
    1.5240   -1.2652    1.0542 C   0  0  0
    0.2974   -0.7371    0.6301 C   0  0  0
    2.3113    0.9528    1.7270 C   0  0  0
    1.0800    1.4385    1.2915 C   0  0  0
    0.0721    0.6472    0.7499 C   0  0  0
    0.6901    2.7429    1.3312 O   0  0  0
   -0.5693    2.8010    0.8169 C   0  0  0
   -1.0002    1.5347    0.4414 C   0  0  0
   -2.2881    1.4028   -0.1146 C   0  0  0
   -3.1016    2.5447   -0.2699 C   0  0  0
   -2.6086    3.8017    0.1231 C   0  0  0
   -1.3318    3.9565    0.6774 C   0  0  0
   -4.4413    2.3999   -0.8588 C   0  0  0
   -4.8248    1.6493   -1.9555 C   0  0  0
   -6.2218    1.7379   -2.2217 C   0  0  0
   -6.8744    2.5459   -1.3165 C   0  0  0
   -5.7962    3.1865   -0.1548 S   0  0  0
   -8.3227    2.8863   -1.2562 C   0  0  0
    4.0704   -1.7838   -0.6038 H   0  0  0
    6.1464   -1.7256   -3.0265 H   0  0  0
    4.3947   -1.4758   -3.1521 H   0  0  0
    5.5212   -0.2437   -3.7459 H   0  0  0
    6.3394    0.1378   -1.4173 H   0  0  0
    4.3697    1.4263   -0.6647 H   0  0  0
    4.5179    1.5285   -2.4171 H   0  0  0
    3.3024    0.4577   -1.6993 H   0  0  0
    6.4177   -4.2139   -0.8862 H   0  0  0
    5.8765   -0.0176    1.0644 H   0  0  0
    1.6898   -2.3347    0.9550 H   0  0  0
   -0.4631   -1.3924    0.2154 H   0  0  0
    3.0638    1.6147    2.1387 H   0  0  0
   -2.6454    0.4194   -0.4096 H   0  0  0
   -3.2140    4.6972   -0.0077 H   0  0  0
   -0.9572    4.9279    0.9780 H   0  0  0
   -4.1350    1.0641   -2.5513 H   0  0  0
   -6.7195    1.2302   -3.0383 H   0  0  0
   -8.8735    2.3999   -2.0682 H   0  0  0
   -8.7609    2.5544   -0.3092 H   0  0  0
   -8.4723    3.9669   -1.3512 H   0  0  0
  1  2  1  0
  2  3  1  0
  4  2  1  6
  4  5  1  0
  4  8  1  0
  5  6  2  0
  5  7  1  0
  8  9  1  0
  9 10  2  0
  9 11  2  0
  9 12  1  0
 12 13  1  0
 12 15  2  0
 13 14  2  0
 14 17  1  0
 15 16  1  0
 16 17  2  0
 16 18  1  0
 17 20  1  0
 18 19  1  0
 19 24  1  0
 19 20  2  0
 20 21  1  0
 21 22  2  0
 22 23  1  0
 22 25  1  0
 23 24  2  0
 25 29  1  0
 25 26  2  0
 26 27  1  0
 27 28  2  0
 28 29  1  0
 28 30  1  0
  1 32  1  0
  1 33  1  0
  1 34  1  0
  2 35  1  0
  3 36  1  0
  3 37  1  0
  3 38  1  0
  4 31  1  0
  7 39  1  0
  8 40  1  0
 13 41  1  0
 14 42  1  0
 15 43  1  0
 21 44  1  0
 23 45  1  0
 24 46  1  0
 26 47  1  0
 27 48  1  0
 30 49  1  0
 30 50  1  0
 30 51  1  0
M  END
>  <CMPD_CHEMBLID>
CHEMBL1935288

>  <COMPOUND_KEY>
23

>  <MOLWEIGHT>
443.54

>  <ALOGP>
4.67

>  <PSA>
133.22

>  <STANDARD_VALUE>
0.2

>  <IC50>
3.698970004

$$$$
n12

  
 48 51  0  0  1  0  0  0  0  0999 V2000
    5.4235   -0.8602   -2.9166 C   0  0  0
    5.3662   -0.2008   -1.5338 C   0  0  0
    4.3099    0.9109   -1.5573 C   0  0  0
    5.0722   -1.2337   -0.4283 C   0  0  1
    6.1756   -2.2680   -0.3248 C   0  0  0
    7.2642   -2.1046    0.2077 O   0  0  0
    5.8172   -3.4257   -0.9332 O   0  0  0
    5.0544   -0.5696    0.8939 N   0  0  0
    4.0085   -1.0921    2.1201 S   0  0  0
    3.9298   -2.5393    2.1032 O   0  0  0
    4.3335   -0.3847    3.3430 O   0  0  0
    2.4587   -0.4455    1.5530 C   0  0  0
    1.5133   -1.3079    0.9927 C   0  0  0
    0.2818   -0.8114    0.5452 C   0  0  0
    2.2177    0.9243    1.7089 C   0  0  0
    0.9830    1.3784    1.2494 C   0  0  0
    0.0124    0.5640    0.6749 C   0  0  0
    0.5532    2.6699    1.2945 O   0  0  0
   -0.6947    2.6966    0.7506 C   0  0  0
   -1.0786    1.4231    0.3505 C   0  0  0
   -2.3496    1.2582   -0.2379 C   0  0  0
   -3.1917    2.3767   -0.4053 C   0  0  0
   -2.7469    3.6419    0.0210 C   0  0  0
   -1.4889    3.8294    0.6078 C   0  0  0
   -4.5184    2.2235   -1.0166 C   0  0  0
   -5.0588    1.0811   -1.6767 C   0  0  0
   -6.3250    1.4401   -2.0665 C   0  0  0
   -6.4855    2.7219   -1.6452 N   0  0  0
   -5.4171    3.2240   -1.0109 N   0  0  0
    4.1130   -1.7309   -0.6093 H   0  0  0
   -7.2977    3.3163   -1.7569 H   0  0  0
    6.2435   -1.5821   -2.9803 H   0  0  0
    4.4886   -1.3830   -3.1454 H   0  0  0
    5.5915   -0.1110   -3.6980 H   0  0  0
    6.3421    0.2669   -1.3461 H   0  0  0
    4.3172    1.4873   -0.6271 H   0  0  0
    4.5040    1.6146   -2.3741 H   0  0  0
    3.3044    0.4997   -1.6979 H   0  0  0
    6.5382   -4.0866   -0.8620 H   0  0  0
    5.8251    0.0681    1.1218 H   0  0  0
    1.7133   -2.3707    0.8856 H   0  0  0
   -0.4486   -1.4841    0.1050 H   0  0  0
    2.9400    1.6033    2.1459 H   0  0  0
   -2.6573    0.2639   -0.5471 H   0  0  0
   -3.3792    4.5203   -0.1001 H   0  0  0
   -1.1538    4.8074    0.9325 H   0  0  0
   -4.5932    0.1220   -1.8526 H   0  0  0
   -7.1040    0.9087   -2.5940 H   0  0  0
  1  2  1  0
  2  3  1  0
  4  2  1  6
  4  5  1  0
  4  8  1  0
  5  6  2  0
  5  7  1  0
  8  9  1  0
  9 10  2  0
  9 11  2  0
  9 12  1  0
 12 13  1  0
 12 15  2  0
 13 14  2  0
 14 17  1  0
 15 16  1  0
 16 17  2  0
 16 18  1  0
 17 20  1  0
 18 19  1  0
 19 24  1  0
 19 20  2  0
 20 21  1  0
 21 22  2  0
 22 23  1  0
 22 25  1  0
 23 24  2  0
 25 29  2  0
 25 26  1  0
 26 27  2  0
 27 28  1  0
 28 29  1  0
  1 32  1  0
  1 33  1  0
  1 34  1  0
  2 35  1  0
  3 36  1  0
  3 37  1  0
  3 38  1  0
  4 30  1  0
  7 39  1  0
  8 40  1  0
 13 41  1  0
 14 42  1  0
 15 43  1  0
 21 44  1  0
 23 45  1  0
 24 46  1  0
 26 47  1  0
 27 48  1  0
 28 31  1  0
M  END
>  <CMPD_CHEMBLID>
CHEMBL1935289

>  <COMPOUND_KEY>
24

>  <MOLWEIGHT>
413.45

>  <ALOGP>
3.44

>  <PSA>
133.66

>  <STANDARD_VALUE>
1

>  <IC50>
3

$$$$
n14

  
 47 50  0  0  1  0  0  0  0  0999 V2000
    4.8624   -0.8020   -2.9352 C   0  0  0
    4.8104   -0.1821   -1.5340 C   0  0  0
    3.7693    0.9441   -1.5279 C   0  0  0
    4.4995   -1.2425   -0.4596 C   0  0  1
    5.5885   -2.2943   -0.3835 C   0  0  0
    6.6778   -2.1611    0.1559 O   0  0  0
    5.2161   -3.4289   -1.0260 O   0  0  0
    4.4872   -0.6167    0.8812 N   0  0  0
    3.4308   -1.1597    2.0893 S   0  0  0
    3.3321   -2.6045    2.0305 O   0  0  0
    3.7622   -0.4923    3.3328 O   0  0  0
    1.8917   -0.4755    1.5373 C   0  0  0
    0.9366   -1.3080    0.9488 C   0  0  0
   -0.2866   -0.7818    0.5126 C   0  0  0
    1.6686    0.8923    1.7332 C   0  0  0
    0.4418    1.3765    1.2837 C   0  0  0
   -0.5378    0.5927    0.6824 C   0  0  0
    0.0290    2.6719    1.3661 O   0  0  0
   -1.2163    2.7313    0.8189 C   0  0  0
   -1.6156    1.4756    0.3807 C   0  0  0
   -2.8860    1.3485   -0.2155 C   0  0  0
   -3.7153    2.4825   -0.3602 C   0  0  0
   -3.2554    3.7259    0.1109 C   0  0  0
   -1.9961    3.8775    0.7076 C   0  0  0
   -5.0409    2.3086   -0.9837 C   0  0  0
   -5.6816    1.1555   -1.0391 N   0  0  0
   -6.8845    1.3080   -1.6980 C   0  0  0
   -7.1571    2.5763   -2.1557 C   0  0  0
   -5.8637    3.6199   -1.7520 S   0  0  0
    3.5341   -1.7211   -0.6571 H   0  0  0
    5.6728   -1.5330   -3.0180 H   0  0  0
    3.9212   -1.3053   -3.1812 H   0  0  0
    5.0426   -0.0330   -3.6943 H   0  0  0
    5.7921    0.2666   -1.3308 H   0  0  0
    3.7820    1.4931   -0.5813 H   0  0  0
    3.9752    1.6684   -2.3235 H   0  0  0
    2.7588    0.5509   -1.6826 H   0  0  0
    5.9279   -4.1014   -0.9723 H   0  0  0
    5.2660    0.0036    1.1293 H   0  0  0
    1.1226   -2.3698    0.8107 H   0  0  0
   -1.0247   -1.4310    0.0504 H   0  0  0
    2.3985    1.5481    2.1924 H   0  0  0
   -3.2136    0.3723   -0.5654 H   0  0  0
   -3.8760    4.6166    0.0358 H   0  0  0
   -1.6514    4.8398    1.0677 H   0  0  0
   -7.5320    0.4500   -1.8201 H   0  0  0
   -8.0259    2.9268   -2.6939 H   0  0  0
  1  2  1  0
  2  3  1  0
  4  2  1  6
  4  5  1  0
  4  8  1  0
  5  6  2  0
  5  7  1  0
  8  9  1  0
  9 10  2  0
  9 11  2  0
  9 12  1  0
 12 13  1  0
 12 15  2  0
 13 14  2  0
 14 17  1  0
 15 16  1  0
 16 17  2  0
 16 18  1  0
 17 20  1  0
 18 19  1  0
 19 24  1  0
 19 20  2  0
 20 21  1  0
 21 22  2  0
 22 23  1  0
 22 25  1  0
 23 24  2  0
 25 29  1  0
 25 26  2  0
 26 27  1  0
 27 28  2  0
 28 29  1  0
  1 31  1  0
  1 32  1  0
  1 33  1  0
  2 34  1  0
  3 35  1  0
  3 36  1  0
  3 37  1  0
  4 30  1  0
  7 38  1  0
  8 39  1  0
 13 40  1  0
 14 41  1  0
 15 42  1  0
 21 43  1  0
 23 44  1  0
 24 45  1  0
 27 46  1  0
 28 47  1  0
M  END
>  <CMPD_CHEMBLID>
CHEMBL1935291

>  <COMPOUND_KEY>
26

>  <MOLWEIGHT>
430.5

>  <ALOGP>
3.43

>  <PSA>
146.12

>  <STANDARD_VALUE>
1

>  <IC50>
3

$$$$
n15

  
 50 53  0  0  1  0  0  0  0  0999 V2000
    5.3108   -0.8985   -3.0001 C   0  0  0
    5.3162   -0.2552   -1.6086 C   0  0  0
    4.2948    0.8887   -1.5867 C   0  0  0
    5.0239   -1.2925   -0.5067 C   0  0  1
    6.0971   -2.3615   -0.4493 C   0  0  0
    7.2059   -2.2383    0.0513 O   0  0  0
    5.6845   -3.4998   -1.0599 O   0  0  0
    5.0670   -0.6449    0.8230 N   0  0  0
    4.0427   -1.1499    2.0745 S   0  0  0
    3.9180   -2.5936    2.0433 O   0  0  0
    4.4266   -0.4682    3.2949 O   0  0  0
    2.4976   -0.4484    1.5625 C   0  0  0
    1.5096   -1.2738    1.0201 C   0  0  0
    0.2815   -0.7339    0.6159 C   0  0  0
    2.3040    0.9260    1.7427 C   0  0  0
    1.0710    1.4238    1.3261 C   0  0  0
    0.0589    0.6473    0.7709 C   0  0  0
    0.6831    2.7275    1.3998 O   0  0  0
   -0.5789    2.7993    0.8938 C   0  0  0
   -1.0136    1.5437    0.4905 C   0  0  0
   -2.3050    1.4288   -0.0614 C   0  0  0
   -3.1237    2.5726   -0.1874 C   0  0  0
   -2.6221    3.8178    0.2334 C   0  0  0
   -1.3411    3.9576    0.7850 C   0  0  0
   -4.4670    2.4138   -0.7756 C   0  0  0
   -4.8110    1.4113   -1.5622 N   0  0  0
   -6.1341    1.5298   -1.9360 C   0  0  0
   -6.8064    2.6182   -1.4254 C   0  0  0
   -5.7442    3.5266   -0.4393 S   0  0  0
   -8.2170    3.0370   -1.6222 C   0  0  0
    4.0445   -1.7575   -0.6639 H   0  0  0
    6.1056   -1.6446   -3.0975 H   0  0  0
    4.3535   -1.3894   -3.2062 H   0  0  0
    5.4782   -0.1451   -3.7776 H   0  0  0
    6.3115    0.1798   -1.4457 H   0  0  0
    4.3483    1.4528   -0.6504 H   0  0  0
    4.4859    1.5964   -2.4008 H   0  0  0
    3.2732    0.5105   -1.7011 H   0  0  0
    6.3864   -4.1835   -1.0186 H   0  0  0
    5.8638   -0.0341    1.0345 H   0  0  0
    1.6732   -2.3407    0.8936 H   0  0  0
   -0.4824   -1.3776    0.1893 H   0  0  0
    3.0597    1.5765    2.1662 H   0  0  0
   -2.6615    0.4523   -0.3810 H   0  0  0
   -3.2168    4.7235    0.1313 H   0  0  0
   -0.9638    4.9215    1.1059 H   0  0  0
   -6.5632    0.7821   -2.5902 H   0  0  0
   -8.7435    2.3401   -2.2826 H   0  0  0
   -8.7522    3.0622   -0.6673 H   0  0  0
   -8.2678    4.0318   -2.0769 H   0  0  0
  1  2  1  0
  2  3  1  0
  4  2  1  6
  4  5  1  0
  4  8  1  0
  5  6  2  0
  5  7  1  0
  8  9  1  0
  9 10  2  0
  9 11  2  0
  9 12  1  0
 12 13  1  0
 12 15  2  0
 13 14  2  0
 14 17  1  0
 15 16  1  0
 16 17  2  0
 16 18  1  0
 17 20  1  0
 18 19  1  0
 19 24  1  0
 19 20  2  0
 20 21  1  0
 21 22  2  0
 22 23  1  0
 22 25  1  0
 23 24  2  0
 25 29  1  0
 25 26  2  0
 26 27  1  0
 27 28  2  0
 28 29  1  0
 28 30  1  0
  1 32  1  0
  1 33  1  0
  1 34  1  0
  2 35  1  0
  3 36  1  0
  3 37  1  0
  3 38  1  0
  4 31  1  0
  7 39  1  0
  8 40  1  0
 13 41  1  0
 14 42  1  0
 15 43  1  0
 21 44  1  0
 23 45  1  0
 24 46  1  0
 27 47  1  0
 30 48  1  0
 30 49  1  0
 30 50  1  0
M  END
>  <CMPD_CHEMBLID>
CHEMBL1935292

>  <COMPOUND_KEY>
27

>  <MOLWEIGHT>
444.52

>  <ALOGP>
3.58

>  <PSA>
146.12

>  <STANDARD_VALUE>
1.2

>  <IC50>
2.920818754

$$$$
n16

  
 49 52  0  0  1  0  0  0  0  0999 V2000
    5.2744   -0.8327   -3.0236 C   0  0  0
    5.2703   -0.1893   -1.6321 C   0  0  0
    4.2147    0.9230   -1.6027 C   0  0  0
    5.0179   -1.2348   -0.5282 C   0  0  1
    6.1236   -2.2705   -0.4787 C   0  0  0
    7.2318   -2.1136    0.0139 O   0  0  0
    5.7415   -3.4210   -1.0863 O   0  0  0
    5.0509   -0.5859    0.8012 N   0  0  0
    4.0519   -1.1219    2.0603 S   0  0  0
    3.9710   -2.5686    2.0297 O   0  0  0
    4.4239   -0.4287    3.2779 O   0  0  0
    2.4824   -0.4678    1.5599 C   0  0  0
    1.5159   -1.3229    1.0250 C   0  0  0
    0.2688   -0.8206    0.6302 C   0  0  0
    2.2483    0.9001    1.7416 C   0  0  0
    0.9977    1.3602    1.3344 C   0  0  0
    0.0055    0.5532    0.7869 C   0  0  0
    0.5709    2.6513    1.4115 O   0  0  0
   -0.6965    2.6853    0.9150 C   0  0  0
   -1.0963    1.4163    0.5145 C   0  0  0
   -2.3879    1.2595   -0.0277 C   0  0  0
   -3.2312    2.3830   -0.1482 C   0  0  0
   -2.7731    3.6428    0.2736 C   0  0  0
   -1.4940    3.8212    0.8151 C   0  0  0
   -4.5721    2.2456   -0.7064 C   0  0  0
   -5.0924    1.0826   -1.1352 N   0  0  0
   -6.3681    1.4307   -1.5747 O   0  0  0
   -6.4944    2.7708   -1.3686 C   0  0  0
   -5.4270    3.3192   -0.8404 N   0  0  0
   -7.7734    3.3858   -1.7585 C   0  0  0
    4.0521   -1.7295   -0.6782 H   0  0  0
    6.0908   -1.5542   -3.1268 H   0  0  0
    4.3311   -1.3526   -3.2227 H   0  0  0
    5.4131   -0.0747   -3.8022 H   0  0  0
    6.2531    0.2759   -1.4764 H   0  0  0
    4.2579    1.4885   -0.6668 H   0  0  0
    4.3782    1.6359   -2.4181 H   0  0  0
    3.2043    0.5138   -1.7096 H   0  0  0
    6.4642   -4.0829   -1.0502 H   0  0  0
    5.8305    0.0487    1.0070 H   0  0  0
    1.7109   -2.3844    0.8973 H   0  0  0
   -0.4783   -1.4875    0.2095 H   0  0  0
    2.9871    1.5734    2.1594 H   0  0  0
   -2.7135    0.2723   -0.3450 H   0  0  0
   -3.4123    4.5203    0.1873 H   0  0  0
   -1.1450    4.7945    1.1391 H   0  0  0
   -8.6011    2.9355   -1.2027 H   0  0  0
   -7.7657    4.4598   -1.5500 H   0  0  0
   -7.9562    3.2464   -2.8281 H   0  0  0
  1  2  1  0
  2  3  1  0
  4  2  1  6
  4  5  1  0
  4  8  1  0
  5  6  2  0
  5  7  1  0
  8  9  1  0
  9 10  2  0
  9 11  2  0
  9 12  1  0
 12 13  1  0
 12 15  2  0
 13 14  2  0
 14 17  1  0
 15 16  1  0
 16 17  2  0
 16 18  1  0
 17 20  1  0
 18 19  1  0
 19 24  1  0
 19 20  2  0
 20 21  1  0
 21 22  2  0
 22 23  1  0
 22 25  1  0
 23 24  2  0
 25 29  1  0
 25 26  2  0
 26 27  1  0
 27 28  1  0
 28 29  2  0
 28 30  1  0
  1 32  1  0
  1 33  1  0
  1 34  1  0
  2 35  1  0
  3 36  1  0
  3 37  1  0
  3 38  1  0
  4 31  1  0
  7 39  1  0
  8 40  1  0
 13 41  1  0
 14 42  1  0
 15 43  1  0
 21 44  1  0
 23 45  1  0
 24 46  1  0
 30 47  1  0
 30 48  1  0
 30 49  1  0
M  END
>  <CMPD_CHEMBLID>
CHEMBL1935293

>  <COMPOUND_KEY>
33

>  <MOLWEIGHT>
429.45

>  <ALOGP>
2.7

>  <PSA>
143.9

>  <STANDARD_VALUE>
8.6

>  <IC50>
2.065501549

$$$$
n17

  
 52 55  0  0  1  0  0  0  0  0999 V2000
   -8.9079    2.8393    0.8882 C   0  0  0
   -8.1284    2.0346    1.9143 C   0  0  0
   -6.7976    1.6461    1.3983 C   0  0  0
   -6.7203    0.4801    0.6983 O   0  0  0
   -5.3872    0.3351    0.3200 N   0  0  0
   -4.7887    1.4266    0.8273 C   0  0  0
   -5.6465    2.2647    1.5076 N   0  0  0
   -3.3664    1.7180    0.6842 C   0  0  0
   -2.8298    2.8869    1.2506 C   0  0  0
   -1.4711    3.2066    1.1380 C   0  0  0
   -2.5225    0.8347   -0.0197 C   0  0  0
   -1.1515    1.1371   -0.1451 C   0  0  0
   -0.6760    2.3065    0.4352 C   0  0  0
   -0.0235    0.5159   -0.7576 C   0  0  0
    1.0585    1.3533   -0.5056 C   0  0  0
    0.6615    2.4375    0.2168 O   0  0  0
    2.3603    1.1053   -0.9358 C   0  0  0
    2.5474   -0.0800   -1.6563 C   0  0  0
    1.4929   -0.9493   -1.9456 C   0  0  0
    0.1972   -0.6615   -1.4966 C   0  0  0
    4.1809   -0.4585   -2.2290 S   0  0  0
    4.0906   -1.5960   -3.1233 O   0  0  0
    4.7709    0.7864   -2.6801 O   0  0  0
    4.9526   -0.9411   -0.7976 N   0  0  0
    4.5031   -2.1413   -0.0532 C   0  0  1
    5.7293   -2.9553    0.4043 C   0  0  0
    5.3167   -4.1816    1.2264 C   0  0  0
    6.5667   -3.4190   -0.7943 C   0  0  0
    3.7224   -1.5997    1.1274 C   0  0  0
    4.0333   -0.6318    1.8070 O   0  0  0
    2.6131   -2.3427    1.3625 O   0  0  0
    3.8494   -2.7528   -0.6850 H   0  0  0
   -9.8857    3.1225    1.2905 H   0  0  0
   -8.3738    3.7559    0.6149 H   0  0  0
   -9.0714    2.2611   -0.0278 H   0  0  0
   -8.0042    2.6294    2.8261 H   0  0  0
   -8.6977    1.1399    2.1905 H   0  0  0
   -3.4684    3.5793    1.7971 H   0  0  0
   -1.0617    4.1091    1.5764 H   0  0  0
   -2.9077   -0.0768   -0.4690 H   0  0  0
    3.1688    1.7895   -0.7078 H   0  0  0
    1.6538   -1.8630   -2.5115 H   0  0  0
   -0.6194   -1.3427   -1.7182 H   0  0  0
    5.5220   -0.2589   -0.2833 H   0  0  0
    6.3687   -2.3267    1.0388 H   0  0  0
    6.1939   -4.7748    1.5067 H   0  0  0
    4.8151   -3.8891    2.1542 H   0  0  0
    4.6383   -4.8286    0.6601 H   0  0  0
    7.4205   -4.0197   -0.4627 H   0  0  0
    5.9703   -4.0295   -1.4810 H   0  0  0
    6.9670   -2.5686   -1.3555 H   0  0  0
    2.1164   -1.9840    2.1284 H   0  0  0
  1  2  1  0
  2  3  1  0
  3  7  2  0
  3  4  1  0
  4  5  1  0
  5  6  2  0
  6  7  1  0
  6  8  1  0
  8  9  1  0
  8 11  2  0
  9 10  2  0
 10 13  1  0
 11 12  1  0
 12 13  2  0
 12 14  1  0
 13 16  1  0
 14 20  2  0
 14 15  1  0
 15 16  1  0
 15 17  2  0
 17 18  1  0
 18 19  2  0
 18 21  1  0
 19 20  1  0
 21 22  2  0
 21 23  2  0
 21 24  1  0
 24 25  1  0
 25 26  1  1
 25 29  1  0
 26 27  1  0
 26 28  1  0
 29 30  2  0
 29 31  1  0
  1 33  1  0
  1 34  1  0
  1 35  1  0
  2 36  1  0
  2 37  1  0
  9 38  1  0
 10 39  1  0
 11 40  1  0
 17 41  1  0
 19 42  1  0
 20 43  1  0
 24 44  1  0
 25 32  1  0
 26 45  1  0
 27 46  1  0
 27 47  1  0
 27 48  1  0
 28 49  1  0
 28 50  1  0
 28 51  1  0
 31 52  1  0
M  END
>  <CMPD_CHEMBLID>
CHEMBL1935294

>  <COMPOUND_KEY>
34

>  <MOLWEIGHT>
443.47

>  <ALOGP>
3.37

>  <PSA>
143.9

>  <STANDARD_VALUE>
2.9

>  <IC50>
2.537602002

$$$$
n18

  
 55 58  0  0  1  0  0  0  0  0999 V2000
    5.4516   -1.7894   -3.1439 C   0  0  0
    5.6171   -0.9434   -1.8761 C   0  0  0
    4.5836    0.1896   -1.8971 C   0  0  0
    5.4851   -1.8028   -0.6035 C   0  0  1
    6.5784   -2.8497   -0.5226 C   0  0  0
    7.7382   -2.6512   -0.1897 O   0  0  0
    6.1160   -4.0676   -0.8991 O   0  0  0
    5.6802   -0.9619    0.5982 N   0  0  0
    4.8301   -1.2735    2.0302 S   0  0  0
    4.7316   -2.7055    2.2311 O   0  0  0
    5.3492   -0.4151    3.0768 O   0  0  0
    3.2195   -0.6590    1.6181 C   0  0  0
    2.1884   -1.5579    1.3346 C   0  0  0
    0.9088   -1.0864    1.0126 C   0  0  0
    3.0222    0.7266    1.6135 C   0  0  0
    1.7372    1.1546    1.2862 C   0  0  0
    0.6796    0.3022    0.9859 C   0  0  0
    1.3355    2.4539    1.2127 O   0  0  0
    0.0191    2.4479    0.8649 C   0  0  0
   -0.4378    1.1447    0.7121 C   0  0  0
   -1.7855    0.9438    0.3514 C   0  0  0
   -2.6257    2.0593    0.1573 C   0  0  0
   -2.1086    3.3551    0.3258 C   0  0  0
   -0.7731    3.5774    0.6838 C   0  0  0
   -4.0240    1.8767   -0.2163 C   0  0  0
   -4.6027    0.6776   -0.3994 N   0  0  0
   -5.9169    0.9901   -0.7383 O   0  0  0
   -6.0064    2.3506   -0.7275 C   0  0  0
   -4.8774    2.9410   -0.4146 N   0  0  0
   -7.3238    2.9589   -1.0597 C   0  0  0
   -7.7496    2.6049   -2.4833 C   0  0  0
   -8.3918    2.5432   -0.0499 C   0  0  0
    4.5033   -2.2873   -0.5647 H   0  0  0
    6.2429   -2.5407   -3.2279 H   0  0  0
    4.4862   -2.3068   -3.1519 H   0  0  0
    5.5058   -1.1618   -4.0401 H   0  0  0
    6.6160   -0.4877   -1.9068 H   0  0  0
    4.7418    0.8885   -1.0700 H   0  0  0
    4.6577    0.7665   -2.8253 H   0  0  0
    3.5635   -0.2027   -1.8240 H   0  0  0
    6.8312   -4.7364   -0.8448 H   0  0  0
    6.4848   -0.3254    0.6139 H   0  0  0
    2.3563   -2.6315    1.3497 H   0  0  0
    0.1108   -1.7881    0.7872 H   0  0  0
    3.8117    1.4344    1.8360 H   0  0  0
   -2.1560   -0.0705    0.2286 H   0  0  0
   -2.7445    4.2270    0.1796 H   0  0  0
   -0.3787    4.5785    0.8128 H   0  0  0
   -7.2144    4.0495   -1.0032 H   0  0  0
   -8.6894    3.1041   -2.7424 H   0  0  0
   -6.9910    2.9193   -3.2089 H   0  0  0
   -7.8972    1.5257   -2.6046 H   0  0  0
   -9.3433    3.0413   -0.2646 H   0  0  0
   -8.5665    1.4614   -0.0684 H   0  0  0
   -8.0937    2.8133    0.9695 H   0  0  0
  1  2  1  0
  2  3  1  0
  4  2  1  6
  4  5  1  0
  4  8  1  0
  5  6  2  0
  5  7  1  0
  8  9  1  0
  9 10  2  0
  9 11  2  0
  9 12  1  0
 12 13  1  0
 12 15  2  0
 13 14  2  0
 14 17  1  0
 15 16  1  0
 16 17  2  0
 16 18  1  0
 17 20  1  0
 18 19  1  0
 19 24  1  0
 19 20  2  0
 20 21  1  0
 21 22  2  0
 22 23  1  0
 22 25  1  0
 23 24  2  0
 25 29  1  0
 25 26  2  0
 26 27  1  0
 27 28  1  0
 28 29  2  0
 28 30  1  0
 30 31  1  0
 30 32  1  0
  1 34  1  0
  1 35  1  0
  1 36  1  0
  2 37  1  0
  3 38  1  0
  3 39  1  0
  3 40  1  0
  4 33  1  0
  7 41  1  0
  8 42  1  0
 13 43  1  0
 14 44  1  0
 15 45  1  0
 21 46  1  0
 23 47  1  0
 24 48  1  0
 30 49  1  0
 31 50  1  0
 31 51  1  0
 31 52  1  0
 32 53  1  0
 32 54  1  0
 32 55  1  0
M  END
>  <CMPD_CHEMBLID>
CHEMBL1935295

>  <COMPOUND_KEY>
35

>  <MOLWEIGHT>
457.5

>  <ALOGP>
3.83

>  <PSA>
143.9

>  <STANDARD_VALUE>
4.5

>  <IC50>
2.346787486

$$$$
n19

  
 58 61  0  0  1  0  0  0  0  0999 V2000
    5.4861   -1.6205   -3.1492 C   0  0  0
    5.6393   -0.8045   -1.8605 C   0  0  0
    4.6031    0.3262   -1.8628 C   0  0  0
    5.4994   -1.6942   -0.6098 C   0  0  1
    6.5948   -2.7401   -0.5449 C   0  0  0
    7.7513   -2.5468   -0.1982 O   0  0  0
    6.1385   -3.9499   -0.9539 O   0  0  0
    5.6828   -0.8816    0.6131 N   0  0  0
    4.8221   -1.2293    2.0305 S   0  0  0
    4.7257   -2.6658    2.1965 O   0  0  0
    5.3306   -0.3947    3.1013 O   0  0  0
    3.2132   -0.6089    1.6202 C   0  0  0
    2.1867   -1.5032    1.3072 C   0  0  0
    0.9085   -1.0272    0.9862 C   0  0  0
    3.0125    0.7759    1.6469 C   0  0  0
    1.7290    1.2085    1.3195 C   0  0  0
    0.6760    0.3610    0.9906 C   0  0  0
    1.3246    2.5083    1.2736 O   0  0  0
    0.0110    2.5074    0.9153 C   0  0  0
   -0.4413    1.2071    0.7279 C   0  0  0
   -1.7856    1.0117    0.3518 C   0  0  0
   -2.6269    2.1295    0.1775 C   0  0  0
   -2.1145    3.4222    0.3808 C   0  0  0
   -0.7825    3.6391    0.7547 C   0  0  0
   -4.0216    1.9528   -0.2115 C   0  0  0
   -4.5965    0.7579   -0.4275 N   0  0  0
   -5.9080    1.0760   -0.7693 O   0  0  0
   -6.0033    2.4374   -0.7277 C   0  0  0
   -4.8754    3.0193   -0.3913 N   0  0  0
   -7.3352    3.0432   -1.0607 C   0  0  0
   -7.7393    2.6581   -2.4936 C   0  0  0
   -8.3992    2.5385   -0.0719 C   0  0  0
   -7.2582    4.5776   -0.9639 C   0  0  0
    4.5186   -2.1819   -0.5903 H   0  0  0
    6.2801   -2.3677   -3.2448 H   0  0  0
    4.5222   -2.1400   -3.1773 H   0  0  0
    5.5459   -0.9717   -4.0298 H   0  0  0
    6.6372   -0.3458   -1.8723 H   0  0  0
    4.7529    1.0056   -1.0181 H   0  0  0
    4.6830    0.9251   -2.7765 H   0  0  0
    3.5834   -0.0702   -1.8072 H   0  0  0
    6.8550   -4.6180   -0.9098 H   0  0  0
    6.4856   -0.2438    0.6504 H   0  0  0
    2.3572   -2.5765    1.2982 H   0  0  0
    0.1142   -1.7252    0.7379 H   0  0  0
    3.7983    1.4802    1.8924 H   0  0  0
   -2.1526   -0.0003    0.2020 H   0  0  0
   -2.7516    4.2958    0.2502 H   0  0  0
   -0.3917    4.6377    0.9105 H   0  0  0
   -8.6995    3.1089   -2.7692 H   0  0  0
   -6.9908    2.9933   -3.2214 H   0  0  0
   -7.8401    1.5722   -2.6058 H   0  0  0
   -9.3778    2.9859   -0.2803 H   0  0  0
   -8.5157    1.4497   -0.1264 H   0  0  0
   -8.1308    2.7866    0.9619 H   0  0  0
   -8.2229    5.0391   -1.2040 H   0  0  0
   -6.9776    4.9010    0.0456 H   0  0  0
   -6.5133    4.9852   -1.6579 H   0  0  0
  1  2  1  0
  2  3  1  0
  4  2  1  6
  4  5  1  0
  4  8  1  0
  5  6  2  0
  5  7  1  0
  8  9  1  0
  9 10  2  0
  9 11  2  0
  9 12  1  0
 12 13  1  0
 12 15  2  0
 13 14  2  0
 14 17  1  0
 15 16  1  0
 16 17  2  0
 16 18  1  0
 17 20  1  0
 18 19  1  0
 19 24  1  0
 19 20  2  0
 20 21  1  0
 21 22  2  0
 22 23  1  0
 22 25  1  0
 23 24  2  0
 25 29  1  0
 25 26  2  0
 26 27  1  0
 27 28  1  0
 28 29  2  0
 28 30  1  0
 30 31  1  0
 30 32  1  0
 30 33  1  0
  1 35  1  0
  1 36  1  0
  1 37  1  0
  2 38  1  0
  3 39  1  0
  3 40  1  0
  3 41  1  0
  4 34  1  0
  7 42  1  0
  8 43  1  0
 13 44  1  0
 14 45  1  0
 15 46  1  0
 21 47  1  0
 23 48  1  0
 24 49  1  0
 31 50  1  0
 31 51  1  0
 31 52  1  0
 32 53  1  0
 32 54  1  0
 32 55  1  0
 33 56  1  0
 33 57  1  0
 33 58  1  0
M  END
>  <CMPD_CHEMBLID>
CHEMBL1935296

>  <COMPOUND_KEY>
36

>  <MOLWEIGHT>
471.53

>  <ALOGP>
4.25

>  <PSA>
143.9

>  <STANDARD_VALUE>
17

>  <IC50>
1.769551079

$$$$
n20

  
 58 61  0  0  1  0  0  0  0  0999 V2000
   -9.5487    2.4862    1.0847 C   0  0  0
   -8.1105    2.3939    0.5698 C   0  0  0
   -7.6632    3.7601    0.0417 C   0  0  0
   -7.1865    1.8777    1.6860 C   0  0  0
   -5.8282    1.5476    1.1930 C   0  0  0
   -5.6770    0.3627    0.5384 O   0  0  0
   -4.3344    0.2818    0.1751 N   0  0  0
   -3.8046    1.4238    0.6465 C   0  0  0
   -4.7152    2.2343    1.2903 N   0  0  0
   -2.4005    1.7924    0.5022 C   0  0  0
   -1.9389    3.0124    1.0249 C   0  0  0
   -0.6002    3.4070    0.9094 C   0  0  0
   -1.4996    0.9331   -0.1595 C   0  0  0
   -0.1475    1.3105   -0.2870 C   0  0  0
    0.2530    2.5281    0.2492 C   0  0  0
    1.0207    0.7331   -0.8658 C   0  0  0
    2.0493    1.6421   -0.6399 C   0  0  0
    1.5826    2.7290    0.0354 O   0  0  0
    3.3675    1.4544   -1.0504 C   0  0  0
    3.6306    0.2545   -1.7212 C   0  0  0
    2.6317   -0.6863   -1.9829 C   0  0  0
    1.3171   -0.4578   -1.5552 C   0  0  0
    5.2890   -0.0495   -2.2664 S   0  0  0
    5.2741   -1.2250   -3.1147 O   0  0  0
    5.8093    1.2091   -2.7629 O   0  0  0
    6.0738   -0.4284   -0.8111 N   0  0  0
    5.6884   -1.6225   -0.0223 C   0  0  1
    6.9557   -2.3440    0.4765 C   0  0  0
    6.6079   -3.5588    1.3442 C   0  0  0
    7.8302   -2.8048   -0.6965 C   0  0  0
    4.8660   -1.0813    1.1300 C   0  0  0
    5.1131   -0.0706    1.7723 O   0  0  0
    3.8000   -1.8785    1.3868 O   0  0  0
    5.0777   -2.2961   -0.6337 H   0  0  0
   -9.9039    1.5076    1.4246 H   0  0  0
   -9.6266    3.1860    1.9238 H   0  0  0
  -10.2243    2.8287    0.2937 H   0  0  0
   -8.0982    1.6846   -0.2682 H   0  0  0
   -6.6675    3.7064   -0.4097 H   0  0  0
   -8.3524    4.1216   -0.7291 H   0  0  0
   -7.6334    4.5055    0.8437 H   0  0  0
   -7.1101    2.6221    2.4880 H   0  0  0
   -7.6186    0.9758    2.1376 H   0  0  0
   -2.6222    3.6873    1.5384 H   0  0  0
   -0.2486    4.3488    1.3140 H   0  0  0
   -1.8264   -0.0167   -0.5745 H   0  0  0
    4.1323    2.1936   -0.8442 H   0  0  0
    2.8513   -1.6107   -2.5103 H   0  0  0
    0.5440   -1.1941   -1.7551 H   0  0  0
    6.5974    0.3060   -0.3207 H   0  0  0
    7.5511   -1.6541    1.0897 H   0  0  0
    7.5156   -4.0877    1.6545 H   0  0  0
    6.0811   -3.2598    2.2558 H   0  0  0
    5.9740   -4.2668    0.7995 H   0  0  0
    8.7146   -3.3405   -0.3348 H   0  0  0
    7.2773   -3.4762   -1.3624 H   0  0  0
    8.1854   -1.9553   -1.2886 H   0  0  0
    3.2758   -1.5196    2.1340 H   0  0  0
  1  2  1  0
  2  3  1  0
  2  4  1  0
  4  5  1  0
  5  9  2  0
  5  6  1  0
  6  7  1  0
  7  8  2  0
  8  9  1  0
  8 10  1  0
 10 11  1  0
 10 13  2  0
 11 12  2  0
 12 15  1  0
 13 14  1  0
 14 15  2  0
 14 16  1  0
 15 18  1  0
 16 22  2  0
 16 17  1  0
 17 18  1  0
 17 19  2  0
 19 20  1  0
 20 21  2  0
 20 23  1  0
 21 22  1  0
 23 24  2  0
 23 25  2  0
 23 26  1  0
 26 27  1  0
 27 28  1  1
 27 31  1  0
 28 29  1  0
 28 30  1  0
 31 32  2  0
 31 33  1  0
  1 35  1  0
  1 36  1  0
  1 37  1  0
  2 38  1  0
  3 39  1  0
  3 40  1  0
  3 41  1  0
  4 42  1  0
  4 43  1  0
 11 44  1  0
 12 45  1  0
 13 46  1  0
 19 47  1  0
 21 48  1  0
 22 49  1  0
 26 50  1  0
 27 34  1  0
 28 51  1  0
 29 52  1  0
 29 53  1  0
 29 54  1  0
 30 55  1  0
 30 56  1  0
 30 57  1  0
 33 58  1  0
M  END
>  <CMPD_CHEMBLID>
CHEMBL1935297

>  <COMPOUND_KEY>
37

>  <MOLWEIGHT>
471.53

>  <ALOGP>
4.08

>  <PSA>
143.9

>  <STANDARD_VALUE>
5.4

>  <IC50>
2.26760624

$$$$
n21

  
 53 56  0  0  1  0  0  0  0  0999 V2000
   -8.9219    2.1075    2.1788 C   0  0  0
   -7.5934    1.8521    1.7428 O   0  0  0
   -7.1546    2.8248    0.7991 C   0  0  0
   -5.7738    2.4634    0.4264 C   0  0  0
   -5.6214    1.4765   -0.5004 O   0  0  0
   -4.2497    1.3188   -0.6872 N   0  0  0
   -3.7061    2.2246    0.1440 C   0  0  0
   -4.6353    2.9572    0.8515 N   0  0  0
   -2.2702    2.4317    0.2982 C   0  0  0
   -1.7944    3.4017    1.1969 C   0  0  0
   -0.4253    3.6344    1.3771 C   0  0  0
   -1.3525    1.6650   -0.4486 C   0  0  0
    0.0303    1.8827   -0.2829 C   0  0  0
    0.4435    2.8549    0.6196 C   0  0  0
    1.2219    1.3290   -0.8366 C   0  0  0
    2.2758    2.0051   -0.2304 C   0  0  0
    1.8027    2.9292    0.6512 O   0  0  0
    3.6217    1.7607   -0.4955 C   0  0  0
    3.8841    0.7538   -1.4317 C   0  0  0
    2.8624    0.0528   -2.0767 C   0  0  0
    1.5209    0.3313   -1.7835 C   0  0  0
    5.5760    0.3889   -1.8114 S   0  0  0
    5.5968   -0.5118   -2.9472 O   0  0  0
    6.2811    1.6544   -1.8635 O   0  0  0
    6.0728   -0.4561   -0.4271 N   0  0  0
    5.4577   -1.7539   -0.0609 C   0  0  1
    6.5560   -2.7397    0.3835 C   0  0  0
    5.9629   -4.0828    0.8240 C   0  0  0
    7.5677   -2.9881   -0.7424 C   0  0  0
    4.5078   -1.4299    1.0747 C   0  0  0
    4.7344   -0.6633    1.9999 O   0  0  0
    3.3474   -2.1203    0.9536 O   0  0  0
    4.8989   -2.1587   -0.9120 H   0  0  0
   -9.2034    1.3332    2.8974 H   0  0  0
   -8.9821    3.0820    2.6730 H   0  0  0
   -9.6162    2.0696    1.3338 H   0  0  0
   -7.8057    2.8164   -0.0818 H   0  0  0
   -7.1750    3.8215    1.2530 H   0  0  0
   -2.4903    4.0019    1.7813 H   0  0  0
   -0.0629    4.3834    2.0713 H   0  0  0
   -1.6895    0.9075   -1.1514 H   0  0  0
    4.4047    2.3140    0.0091 H   0  0  0
    3.0829   -0.7223   -2.8058 H   0  0  0
    0.7290   -0.2198   -2.2824 H   0  0  0
    6.5715    0.0498    0.3142 H   0  0  0
    7.1009   -2.3177    1.2388 H   0  0  0
    6.7563   -4.7882    1.0942 H   0  0  0
    5.3216   -3.9662    1.7032 H   0  0  0
    5.3673   -4.5348    0.0237 H   0  0  0
    8.3290   -3.7104   -0.4283 H   0  0  0
    7.0748   -3.3841   -1.6369 H   0  0  0
    8.0899   -2.0674   -1.0214 H   0  0  0
    2.7411   -1.9038    1.6935 H   0  0  0
  1  2  1  0
  2  3  1  0
  3  4  1  0
  4  8  2  0
  4  5  1  0
  5  6  1  0
  6  7  2  0
  7  8  1  0
  7  9  1  0
  9 10  1  0
  9 12  2  0
 10 11  2  0
 11 14  1  0
 12 13  1  0
 13 14  2  0
 13 15  1  0
 14 17  1  0
 15 21  2  0
 15 16  1  0
 16 17  1  0
 16 18  2  0
 18 19  1  0
 19 20  2  0
 19 22  1  0
 20 21  1  0
 22 23  2  0
 22 24  2  0
 22 25  1  0
 25 26  1  0
 26 27  1  1
 26 30  1  0
 27 28  1  0
 27 29  1  0
 30 31  2  0
 30 32  1  0
  1 34  1  0
  1 35  1  0
  1 36  1  0
  3 37  1  0
  3 38  1  0
 10 39  1  0
 11 40  1  0
 12 41  1  0
 18 42  1  0
 20 43  1  0
 21 44  1  0
 25 45  1  0
 26 33  1  0
 27 46  1  0
 28 47  1  0
 28 48  1  0
 28 49  1  0
 29 50  1  0
 29 51  1  0
 29 52  1  0
 32 53  1  0
M  END
>  <CMPD_CHEMBLID>
CHEMBL1935298

>  <COMPOUND_KEY>
38

>  <MOLWEIGHT>
459.47

>  <ALOGP>
2.44

>  <PSA>
153.13

>  <STANDARD_VALUE>
1.9

>  <IC50>
2.721246399

$$$$
n22

  
 49 52  0  0  1  0  0  0  0  0999 V2000
    5.5882   -1.3279   -3.1351 C   0  0  0
    5.6768   -0.6390   -1.7685 C   0  0  0
    4.6430    0.4927   -1.7152 C   0  0  0
    5.4729   -1.6427   -0.6167 C   0  0  1
    6.5626   -2.6963   -0.5968 C   0  0  0
    7.7003   -2.5435   -0.1755 O   0  0  0
    6.1266   -3.8591   -1.1416 O   0  0  0
    5.5949   -0.9511    0.6856 N   0  0  0
    4.6633   -1.4270    2.0184 S   0  0  0
    4.5573   -2.8722    2.0418 O   0  0  0
    5.1178   -0.7009    3.1879 O   0  0  0
    3.0779   -0.7612    1.5886 C   0  0  0
    2.0677   -1.6159    1.1406 C   0  0  0
    0.8078   -1.1042    0.8025 C   0  0  0
    2.8773    0.6159    1.7370 C   0  0  0
    1.6124    1.0850    1.3883 C   0  0  0
    0.5766    0.2786    0.9275 C   0  0  0
    1.2120    2.3855    1.4461 O   0  0  0
   -0.0818    2.4262    1.0237 C   0  0  0
   -0.5252    1.1523    0.6908 C   0  0  0
   -1.8490    1.0012    0.2306 C   0  0  0
   -2.6794    2.1353    0.1215 C   0  0  0
   -2.1768    3.3998    0.4726 C   0  0  0
   -0.8652    3.5725    0.9320 C   0  0  0
   -4.0529    2.0040   -0.3523 C   0  0  0
   -4.6169    0.8377   -0.7101 N   0  0  0
   -5.9101    1.1937   -1.0858 O   0  0  0
   -6.0040    2.5422   -0.9190 C   0  0  0
   -4.8970    3.0876   -0.4726 N   0  0  0
   -7.2943    3.1585   -1.2555 C   0  0  0
   -8.3064    2.6551   -0.5048 F   0  0  0
   -7.2884    4.5009   -1.0568 F   0  0  0
   -7.6281    2.9557   -2.5551 F   0  0  0
    4.4920   -2.1244   -0.6932 H   0  0  0
    6.3853   -2.0672   -3.2613 H   0  0  0
    4.6264   -1.8368   -3.2609 H   0  0  0
    5.6930   -0.5986   -3.9458 H   0  0  0
    6.6744   -0.1870   -1.6864 H   0  0  0
    4.7505    1.0880   -0.8032 H   0  0  0
    4.7696    1.1753   -2.5625 H   0  0  0
    3.6215    0.0987   -1.7489 H   0  0  0
    6.8393   -4.5325   -1.1253 H   0  0  0
    6.3955   -0.3244    0.8238 H   0  0  0
    2.2375   -2.6843    1.0379 H   0  0  0
    0.0265   -1.7709    0.4492 H   0  0  0
    3.6503    1.2891    2.0878 H   0  0  0
   -2.2086    0.0101   -0.0332 H   0  0  0
   -2.8054    4.2857    0.3941 H   0  0  0
   -0.4819    4.5495    1.2017 H   0  0  0
  1  2  1  0
  2  3  1  0
  4  2  1  6
  4  5  1  0
  4  8  1  0
  5  6  2  0
  5  7  1  0
  8  9  1  0
  9 10  2  0
  9 11  2  0
  9 12  1  0
 12 13  1  0
 12 15  2  0
 13 14  2  0
 14 17  1  0
 15 16  1  0
 16 17  2  0
 16 18  1  0
 17 20  1  0
 18 19  1  0
 19 24  1  0
 19 20  2  0
 20 21  1  0
 21 22  2  0
 22 23  1  0
 22 25  1  0
 23 24  2  0
 25 29  1  0
 25 26  2  0
 26 27  1  0
 27 28  1  0
 28 29  2  0
 28 30  1  0
 30 31  1  0
 30 32  1  0
 30 33  1  0
  1 35  1  0
  1 36  1  0
  1 37  1  0
  2 38  1  0
  3 39  1  0
  3 40  1  0
  3 41  1  0
  4 34  1  0
  7 42  1  0
  8 43  1  0
 13 44  1  0
 14 45  1  0
 15 46  1  0
 21 47  1  0
 23 48  1  0
 24 49  1  0
M  END
>  <CMPD_CHEMBLID>
CHEMBL1935299

>  <COMPOUND_KEY>
39

>  <MOLWEIGHT>
483.42

>  <ALOGP>
3.79

>  <PSA>
143.9

>  <STANDARD_VALUE>
2.2

>  <IC50>
2.657577319

$$$$
n23

  
 53 57  0  0  1  0  0  0  0  0999 V2000
    5.5645   -4.3721    1.0597 C   0  0  0
    6.1268   -3.0635    0.4928 C   0  0  0
    7.1054   -3.3928   -0.6416 C   0  0  0
    5.0029   -2.1279    0.0061 C   0  0  1
    4.0855   -1.7219    1.1420 C   0  0  0
    4.3317   -0.8803    1.9943 O   0  0  0
    2.9305   -2.4312    1.1151 O   0  0  0
    5.5900   -0.8582   -0.4838 N   0  0  0
    5.0394   -0.1335   -1.9152 S   0  0  0
    5.0355   -1.1235   -2.9743 O   0  0  0
    5.7267    1.1303   -2.0924 O   0  0  0
    3.3559    0.2445   -1.5116 C   0  0  0
    2.3231   -0.5165   -2.0644 C   0  0  0
    0.9882   -0.2281   -1.7515 C   0  0  0
    3.1107    1.3215   -0.6520 C   0  0  0
    1.7709    1.5736   -0.3642 C   0  0  0
    0.7068    0.8403   -0.8793 C   0  0  0
    1.3144    2.5617    0.4545 O   0  0  0
   -0.0441    2.4719    0.4729 C   0  0  0
   -0.4736    1.4256   -0.3341 C   0  0  0
   -1.8580    1.1818   -0.4370 C   0  0  0
   -2.7611    1.9979    0.2745 C   0  0  0
   -2.2694    3.0424    1.0758 C   0  0  0
   -0.8982    3.3021    1.1923 C   0  0  0
   -4.1983    1.7651    0.1840 C   0  0  0
   -4.7573    0.7902   -0.5520 N   0  0  0
   -6.1230    0.9515   -0.3353 O   0  0  0
   -6.2625    2.0079    0.5168 C   0  0  0
   -5.1134    2.5428    0.8596 N   0  0  0
   -7.5965    2.5161    0.9995 C   0  0  0
   -7.8650    2.5753    2.4794 C   0  0  0
   -8.5604    1.5498    1.6341 C   0  0  0
    4.4225   -2.6060   -0.7908 H   0  0  0
    6.3747   -5.0454    1.3601 H   0  0  0
    4.9500   -4.1907    1.9469 H   0  0  0
    4.9495   -4.8935    0.3183 H   0  0  0
    6.6932   -2.5682    1.2930 H   0  0  0
    7.8851   -4.0797   -0.2950 H   0  0  0
    6.5894   -3.8650   -1.4846 H   0  0  0
    7.6071   -2.4927   -1.0110 H   0  0  0
    2.3453   -2.1612    1.8545 H   0  0  0
    6.1055   -0.2888    0.1975 H   0  0  0
    2.5301   -1.3461   -2.7351 H   0  0  0
    0.1878   -0.8256   -2.1784 H   0  0  0
    3.9023    1.9216   -0.2194 H   0  0  0
   -2.2076    0.3665   -1.0649 H   0  0  0
   -2.9539    3.6816    1.6316 H   0  0  0
   -0.5234    4.1087    1.8114 H   0  0  0
   -8.0198    3.3063    0.3894 H   0  0  0
   -8.4526    3.4059    2.8520 H   0  0  0
   -7.1010    2.2286    3.1652 H   0  0  0
   -8.2642    0.5145    1.7546 H   0  0  0
   -9.6169    1.6897    1.4380 H   0  0  0
  1  2  1  0
  2  3  1  0
  4  2  1  1
  4  5  1  0
  4  8  1  0
  5  6  2  0
  5  7  1  0
  8  9  1  0
  9 10  2  0
  9 11  2  0
  9 12  1  0
 12 13  1  0
 12 15  2  0
 13 14  2  0
 14 17  1  0
 15 16  1  0
 16 17  2  0
 16 18  1  0
 17 20  1  0
 18 19  1  0
 19 24  1  0
 19 20  2  0
 20 21  1  0
 21 22  2  0
 22 23  1  0
 22 25  1  0
 23 24  2  0
 25 29  1  0
 25 26  2  0
 26 27  1  0
 27 28  1  0
 28 29  2  0
 28 30  1  0
 30 32  1  0
 30 31  1  0
 31 32  1  0
  1 34  1  0
  1 35  1  0
  1 36  1  0
  2 37  1  0
  3 38  1  0
  3 39  1  0
  3 40  1  0
  4 33  1  0
  7 41  1  0
  8 42  1  0
 13 43  1  0
 14 44  1  0
 15 45  1  0
 21 46  1  0
 23 47  1  0
 24 48  1  0
 30 49  1  0
 31 50  1  0
 31 51  1  0
 32 52  1  0
 32 53  1  0
M  END
>  <CMPD_CHEMBLID>
CHEMBL1935300

>  <COMPOUND_KEY>
40

>  <MOLWEIGHT>
455.48

>  <ALOGP>
3.46

>  <PSA>
143.9

>  <STANDARD_VALUE>
1.6

>  <IC50>
2.795880017

$$$$
n24

  
 56 60  0  0  1  0  0  0  0  0999 V2000
    5.6773   -4.4002    1.2462 C   0  0  0
    6.2561   -3.1227    0.6277 C   0  0  0
    7.2411   -3.5097   -0.4827 C   0  0  0
    5.1449   -2.1994    0.0908 C   0  0  1
    4.2218   -1.7362    1.1999 C   0  0  0
    4.4686   -0.8605    2.0169 O   0  0  0
    3.0605   -2.4356    1.1938 O   0  0  0
    5.7476   -0.9575   -0.4488 N   0  0  0
    5.2153   -0.2912   -1.9151 S   0  0  0
    5.2111   -1.3263   -2.9301 O   0  0  0
    5.9156    0.9577   -2.1413 O   0  0  0
    3.5321    0.1188   -1.5428 C   0  0  0
    2.4970   -0.6565   -2.0707 C   0  0  0
    1.1622   -0.3432   -1.7819 C   0  0  0
    3.2898    1.2343   -0.7329 C   0  0  0
    1.9500    1.5103   -0.4676 C   0  0  0
    0.8835    0.7645   -0.9593 C   0  0  0
    1.4959    2.5370    0.3036 O   0  0  0
    0.1365    2.4598    0.3145 C   0  0  0
   -0.2958    1.3831   -0.4499 C   0  0  0
   -1.6816    1.1470   -0.5537 C   0  0  0
   -2.5829    2.0010    0.1142 C   0  0  0
   -2.0882    3.0750    0.8736 C   0  0  0
   -0.7158    3.3278    0.9902 C   0  0  0
   -4.0213    1.7768    0.0221 C   0  0  0
   -4.5835    0.7761   -0.6752 N   0  0  0
   -5.9489    0.9587   -0.4777 O   0  0  0
   -6.0871    2.0514    0.3289 C   0  0  0
   -4.9348    2.5911    0.6552 N   0  0  0
   -7.4213    2.5955    0.7734 C   0  0  0
   -7.5113    2.9814    2.2717 C   0  0  0
   -8.9496    2.4237    2.2507 C   0  0  0
   -8.5025    1.5277    1.0770 C   0  0  0
    4.5668   -2.7068   -0.6895 H   0  0  0
    6.4787   -5.0669    1.5828 H   0  0  0
    5.0570   -4.1748    2.1192 H   0  0  0
    5.0637   -4.9481    0.5229 H   0  0  0
    6.8203   -2.5978    1.4104 H   0  0  0
    8.0116   -4.1876   -0.0996 H   0  0  0
    6.7278   -4.0138   -1.3088 H   0  0  0
    7.7540   -2.6311   -0.8866 H   0  0  0
    2.4716   -2.1284    1.9154 H   0  0  0
    6.2626   -0.3635    0.2114 H   0  0  0
    2.7019   -1.5163   -2.7030 H   0  0  0
    0.3599   -0.9517   -2.1892 H   0  0  0
    4.0832    1.8457   -0.3200 H   0  0  0
   -2.0335    0.3083   -1.1485 H   0  0  0
   -2.7714    3.7435    1.3955 H   0  0  0
   -0.3387    4.1572    1.5768 H   0  0  0
   -7.7796    3.3885    0.1045 H   0  0  0
   -7.4256    4.0487    2.4929 H   0  0  0
   -6.8393    2.4261    2.9375 H   0  0  0
   -9.7077    3.1662    1.9762 H   0  0  0
   -9.2713    1.9004    3.1543 H   0  0  0
   -8.1176    0.5518    1.3975 H   0  0  0
   -9.2499    1.3732    0.2940 H   0  0  0
  1  2  1  0
  2  3  1  0
  4  2  1  1
  4  5  1  0
  4  8  1  0
  5  6  2  0
  5  7  1  0
  8  9  1  0
  9 10  2  0
  9 11  2  0
  9 12  1  0
 12 13  1  0
 12 15  2  0
 13 14  2  0
 14 17  1  0
 15 16  1  0
 16 17  2  0
 16 18  1  0
 17 20  1  0
 18 19  1  0
 19 24  1  0
 19 20  2  0
 20 21  1  0
 21 22  2  0
 22 23  1  0
 22 25  1  0
 23 24  2  0
 25 29  1  0
 25 26  2  0
 26 27  1  0
 27 28  1  0
 28 29  2  0
 28 30  1  0
 30 33  1  0
 30 31  1  0
 31 32  1  0
 32 33  1  0
  1 35  1  0
  1 36  1  0
  1 37  1  0
  2 38  1  0
  3 39  1  0
  3 40  1  0
  3 41  1  0
  4 34  1  0
  7 42  1  0
  8 43  1  0
 13 44  1  0
 14 45  1  0
 15 46  1  0
 21 47  1  0
 23 48  1  0
 24 49  1  0
 30 50  1  0
 31 51  1  0
 31 52  1  0
 32 53  1  0
 32 54  1  0
 33 55  1  0
 33 56  1  0
M  END
>  <CMPD_CHEMBLID>
CHEMBL1935301

>  <COMPOUND_KEY>
41

>  <MOLWEIGHT>
469.51

>  <ALOGP>
3.92

>  <PSA>
143.9

>  <STANDARD_VALUE>
2.3

>  <IC50>
2.638272164

$$$$
n26

  
 56 60  0  0  1  0  0  0  0  0999 V2000
    6.0164   -1.8056   -3.2573 C   0  0  0
    6.1690   -1.0798   -1.9156 C   0  0  0
    5.1232    0.0391   -1.8347 C   0  0  0
    6.0429   -2.0556   -0.7292 C   0  0  1
    7.1474   -3.0938   -0.7420 C   0  0  0
    8.3040   -2.9148   -0.3877 O   0  0  0
    6.6995   -4.2761   -1.2323 O   0  0  0
    6.2253   -1.3284    0.5465 N   0  0  0
    5.3746   -1.7814    1.9399 S   0  0  0
    5.2912   -3.2269    2.0060 O   0  0  0
    5.8813   -1.0190    3.0640 O   0  0  0
    3.7586   -1.1482    1.5807 C   0  0  0
    2.7382   -2.0276    1.2105 C   0  0  0
    1.4545   -1.5417    0.9290 C   0  0  0
    3.5462    0.2296    1.7048 C   0  0  0
    2.2575    0.6726    1.4139 C   0  0  0
    1.2101   -0.1592    1.0312 C   0  0  0
    1.8418    1.9688    1.4605 O   0  0  0
    0.5266    1.9813    1.1086 C   0  0  0
    0.0844    0.6933    0.8329 C   0  0  0
   -1.2600    0.5126    0.4499 C   0  0  0
   -2.1117    1.6324    0.3575 C   0  0  0
   -1.6093    2.9123    0.6483 C   0  0  0
   -0.2774    3.1143    1.0307 C   0  0  0
   -3.5067    1.4708   -0.0368 C   0  0  0
   -4.0725    0.2892   -0.3335 N   0  0  0
   -5.3885    0.6198   -0.6464 O   0  0  0
   -5.4973    1.9739   -0.5098 C   0  0  0
   -4.3711    2.5395   -0.1382 N   0  0  0
   -6.7959    2.5715   -0.7854 C   0  0  0
   -7.8997    1.7989   -1.1765 C   0  0  0
   -9.1348    2.4000   -1.4345 C   0  0  0
   -9.2828    3.7787   -1.3055 C   0  0  0
   -8.1962    4.5585   -0.9182 C   0  0  0
   -6.9608    3.9593   -0.6598 C   0  0  0
    5.0664   -2.5521   -0.7395 H   0  0  0
    6.8162   -2.5372   -3.4080 H   0  0  0
    5.0568   -2.3303   -3.3173 H   0  0  0
    6.0663   -1.0965   -4.0908 H   0  0  0
    7.1629   -0.6126   -1.8998 H   0  0  0
    5.2714    0.6594   -0.9454 H   0  0  0
    5.1935    0.7008   -2.7048 H   0  0  0
    4.1073   -0.3692   -1.8024 H   0  0  0
    7.4218   -4.9394   -1.2379 H   0  0  0
    7.0229   -0.6878    0.6246 H   0  0  0
    2.9178   -3.0960    1.1260 H   0  0  0
    0.6649   -2.2277    0.6360 H   0  0  0
    4.3272    0.9219    1.9955 H   0  0  0
   -1.6190   -0.4896    0.2314 H   0  0  0
   -2.2543    3.7872    0.5818 H   0  0  0
    0.1057    4.1031    1.2541 H   0  0  0
   -7.8192    0.7199   -1.2869 H   0  0  0
   -9.9814    1.7896   -1.7366 H   0  0  0
  -10.2432    4.2445   -1.5064 H   0  0  0
   -8.3084    5.6343   -0.8167 H   0  0  0
   -6.1283    4.5922   -0.3588 H   0  0  0
  1  2  1  0
  2  3  1  0
  4  2  1  6
  4  5  1  0
  4  8  1  0
  5  6  2  0
  5  7  1  0
  8  9  1  0
  9 10  2  0
  9 11  2  0
  9 12  1  0
 12 13  1  0
 12 15  2  0
 13 14  2  0
 14 17  1  0
 15 16  1  0
 16 17  2  0
 16 18  1  0
 17 20  1  0
 18 19  1  0
 19 24  1  0
 19 20  2  0
 20 21  1  0
 21 22  2  0
 22 23  1  0
 22 25  1  0
 23 24  2  0
 25 29  1  0
 25 26  2  0
 26 27  1  0
 27 28  1  0
 28 29  2  0
 28 30  1  0
 30 35  1  0
 30 31  2  0
 31 32  1  0
 32 33  2  0
 33 34  1  0
 34 35  2  0
  1 37  1  0
  1 38  1  0
  1 39  1  0
  2 40  1  0
  3 41  1  0
  3 42  1  0
  3 43  1  0
  4 36  1  0
  7 44  1  0
  8 45  1  0
 13 46  1  0
 14 47  1  0
 15 48  1  0
 21 49  1  0
 23 50  1  0
 24 51  1  0
 31 52  1  0
 32 53  1  0
 33 54  1  0
 34 55  1  0
 35 56  1  0
M  END
>  <CMPD_CHEMBLID>
CHEMBL1935303

>  <COMPOUND_KEY>
43

>  <MOLWEIGHT>
491.52

>  <ALOGP>
4.37

>  <PSA>
143.9

>  <STANDARD_VALUE>
4

>  <IC50>
2.397940009

$$$$
n27

  
 57 61  0  0  1  0  0  0  0  0999 V2000
    5.8359   -4.6810    1.0868 C   0  0  0
    6.4483   -3.4096    0.4882 C   0  0  0
    7.3880   -3.8026   -0.6587 C   0  0  0
    5.3606   -2.4292    0.0073 C   0  0  1
    4.4856   -1.9626    1.1533 C   0  0  0
    4.7879   -1.1209    1.9872 O   0  0  0
    3.2979   -2.6162    1.1591 O   0  0  0
    5.9976   -1.1966   -0.5140 N   0  0  0
    5.4539   -0.4684   -1.9463 S   0  0  0
    5.3827   -1.4731   -2.9891 O   0  0  0
    6.1966    0.7585   -2.1568 O   0  0  0
    3.7984   -0.0047   -1.5175 C   0  0  0
    2.7203   -0.7240   -2.0387 C   0  0  0
    1.4068   -0.3678   -1.7054 C   0  0  0
    3.6211    1.0955   -0.6707 C   0  0  0
    2.3006    1.4153   -0.3619 C   0  0  0
    1.1932    0.7257   -0.8452 C   0  0  0
    1.9072    2.4361    0.4494 O   0  0  0
    0.5466    2.4113    0.4947 C   0  0  0
    0.0526    1.3745   -0.2873 C   0  0  0
   -1.3436    1.1953   -0.3604 C   0  0  0
   -2.1931    2.0640    0.3548 C   0  0  0
   -1.6370    3.0958    1.1301 C   0  0  0
   -0.2531    3.2918    1.2167 C   0  0  0
   -3.6412    1.8985    0.2948 C   0  0  0
   -4.2597    0.9413   -0.4174 N   0  0  0
   -5.6123    1.1691   -0.1775 O   0  0  0
   -5.6827    2.2440    0.6585 C   0  0  0
   -4.5056    2.7271    0.9779 N   0  0  0
   -7.0225    2.7054    1.0797 C   0  0  1
   -7.9436    3.0696   -0.0651 C   0  0  0
   -9.3023    2.9943    0.5964 C   0  0  0
   -9.2206    1.9576    1.5832 O   0  0  0
   -7.8359    1.6530    1.8149 C   0  0  0
    4.7430   -2.8913   -0.7708 H   0  0  0
    6.6190   -5.3875    1.3830 H   0  0  0
    5.2479   -4.4569    1.9822 H   0  0  0
    5.1826   -5.1840    0.3656 H   0  0  0
    7.0529   -2.9295    1.2695 H   0  0  0
    8.1409   -4.5204   -0.3155 H   0  0  0
    6.8340   -4.2626   -1.4841 H   0  0  0
    7.9245   -2.9332   -1.0520 H   0  0  0
    2.7405   -2.3073    1.9047 H   0  0  0
    6.5525   -0.6420    0.1482 H   0  0  0
    2.8747   -1.5725   -2.6999 H   0  0  0
    0.5709   -0.9330   -2.1077 H   0  0  0
    4.4484    1.6637   -0.2625 H   0  0  0
   -1.7434    0.3883   -0.9687 H   0  0  0
   -2.2796    3.7752    1.6882 H   0  0  0
    0.1713    4.0888    1.8158 H   0  0  0
   -6.9122    3.5831    1.7307 H   0  0  0
   -7.8867    2.3303   -0.8738 H   0  0  0
   -7.7378    4.0533   -0.4977 H   0  0  0
  -10.1040    2.7677   -0.1119 H   0  0  0
   -9.5449    3.9298    1.1119 H   0  0  0
   -7.6411    1.6578    2.8922 H   0  0  0
   -7.6574    0.6373    1.4444 H   0  0  0
  1  2  1  0
  2  3  1  0
  4  2  1  1
  4  5  1  0
  4  8  1  0
  5  6  2  0
  5  7  1  0
  8  9  1  0
  9 10  2  0
  9 11  2  0
  9 12  1  0
 12 13  1  0
 12 15  2  0
 13 14  2  0
 14 17  1  0
 15 16  1  0
 16 17  2  0
 16 18  1  0
 17 20  1  0
 18 19  1  0
 19 24  1  0
 19 20  2  0
 20 21  1  0
 21 22  2  0
 22 23  1  0
 22 25  1  0
 23 24  2  0
 25 29  1  0
 25 26  2  0
 26 27  1  0
 27 28  1  0
 28 29  2  0
 28 30  1  0
 30 34  1  0
 30 31  1  6
 31 32  1  0
 32 33  1  0
 33 34  1  0
  1 36  1  0
  1 37  1  0
  1 38  1  0
  2 39  1  0
  3 40  1  0
  3 41  1  0
  3 42  1  0
  4 35  1  0
  7 43  1  0
  8 44  1  0
 13 45  1  0
 14 46  1  0
 15 47  1  0
 21 48  1  0
 23 49  1  0
 24 50  1  0
 30 51  1  0
 31 52  1  0
 31 53  1  0
 32 54  1  0
 32 55  1  0
 34 56  1  0
 34 57  1  0
M  END
>  <CMPD_CHEMBLID>
CHEMBL1935304

>  <COMPOUND_KEY>
44

>  <MOLWEIGHT>
485.51

>  <ALOGP>
2.74

>  <PSA>
153.13

>  <STANDARD_VALUE>
0.3

>  <IC50>
3.522878745

$$$$
