n5
  

 58 61  0  0  1  0  0  0  0  0999 V2000
    5.2722   -4.0802    0.3214 C   0  0  0
    5.8448   -2.6680    0.1561 C   0  0  0
    6.9458   -2.6994   -0.9115 C   0  0  0
    4.7457   -1.6499   -0.2058 C   0  0  1
    3.7028   -1.5440    0.8886 C   0  0  0
    3.8315   -0.9382    1.9430 O   0  0  0
    2.5809   -2.2321    0.5633 O   0  0  0
    5.3363   -0.2940   -0.3036 N   0  0  0
    4.9123    0.7568   -1.5659 S   0  0  0
    5.0539    0.0588   -2.8286 O   0  0  0
    5.5692    2.0312   -1.3524 O   0  0  0
    3.1836    1.0089   -1.2693 C   0  0  0
    2.2417    0.4008   -2.1026 C   0  0  0
    0.8720    0.5909   -1.8767 C   0  0  0
    2.8123    1.8360   -0.2029 C   0  0  0
    1.4417    1.9973   -0.0108 C   0  0  0
    0.4637    1.4061   -0.8044 C   0  0  0
    0.8672    2.7475    0.9704 O   0  0  0
   -0.4812    2.6448    0.8145 C   0  0  0
   -0.7862    1.8263   -0.2631 C   0  0  0
   -2.1451    1.6083   -0.5713 C   0  0  0
   -3.1721    2.2026    0.1985 C   0  0  0
   -2.7791    3.0265    1.2729 C   0  0  0
   -1.4373    3.2646    1.6080 C   0  0  0
   -4.5081    1.9864   -0.1178 N   0  0  0
   -4.9817    0.6504   -0.4955 C   0  0  0
   -5.7914    0.0563    0.6691 C   0  0  0
   -6.8876    0.9522    1.0800 N   0  0  0
   -7.6431    0.3678    2.1867 C   0  0  0
   -6.3662    2.2803    1.4518 C   0  0  0
   -5.5773    2.8998    0.2917 C   0  0  0
    4.2673   -1.9210   -1.1535 H   0  0  0
    6.0696   -4.8006    0.5341 H   0  0  0
    4.5635   -4.1281    1.1540 H   0  0  0
    4.7552   -4.4073   -0.5872 H   0  0  0
    6.3084   -2.3811    1.1096 H   0  0  0
    7.7087   -3.4446   -0.6609 H   0  0  0
    6.5359   -2.9530   -1.8951 H   0  0  0
    7.4518   -1.7322   -0.9929 H   0  0  0
    1.9136   -2.1569    1.2782 H   0  0  0
    5.7574    0.0942    0.5485 H   0  0  0
    2.5467   -0.2340   -2.9302 H   0  0  0
    0.1420    0.1116   -2.5226 H   0  0  0
    3.5327    2.3163    0.4483 H   0  0  0
   -2.3862    0.9941   -1.4349 H   0  0  0
   -3.5274    3.4963    1.9081 H   0  0  0
   -1.1650    3.8966    2.4449 H   0  0  0
   -4.1752   -0.0439   -0.7520 H   0  0  0
   -5.6181    0.7364   -1.3853 H   0  0  0
   -5.1200   -0.1409    1.5157 H   0  0  0
   -6.2038   -0.9066    0.3446 H   0  0  0
   -8.4856    1.0128    2.4598 H   0  0  0
   -8.0693   -0.5980    1.8933 H   0  0  0
   -7.0229    0.2149    3.0773 H   0  0  0
   -5.7265    2.2081    2.3411 H   0  0  0
   -7.2000    2.9485    1.6978 H   0  0  0
   -6.2504    3.0512   -0.5629 H   0  0  0
   -5.2103    3.8978    0.5545 H   0  0  0
  1  2  1  0
  2  3  1  0
  4  2  1  1
  4  5  1  0
  4  8  1  0
  5  6  2  0
  5  7  1  0
  8  9  1  0
  9 10  2  0
  9 11  2  0
  9 12  1  0
 12 13  1  0
 12 15  2  0
 13 14  2  0
 14 17  1  0
 15 16  1  0
 16 17  2  0
 16 18  1  0
 17 20  1  0
 18 19  1  0
 19 24  1  0
 19 20  2  0
 20 21  1  0
 21 22  2  0
 22 23  1  0
 22 25  1  0
 23 24  2  0
 25 31  1  0
 25 26  1  0
 26 27  1  0
 27 28  1  0
 28 29  1  0
 28 30  1  0
 30 31  1  0
  1 33  1  0
  1 34  1  0
  1 35  1  0
  2 36  1  0
  3 37  1  0
  3 38  1  0
  3 39  1  0
  4 32  1  0
  7 40  1  0
  8 41  1  0
 13 42  1  0
 14 43  1  0
 15 44  1  0
 21 45  1  0
 23 46  1  0
 24 47  1  0
 26 48  1  0
 26 49  1  0
 27 50  1  0
 27 51  1  0
 29 52  1  0
 29 53  1  0
 29 54  1  0
 30 55  1  0
 30 56  1  0
 31 57  1  0
 31 58  1  0
M  END
>  <CMPD_CHEMBLID>
CHEMBL1935282

>  <COMPOUND_KEY>
15

>  <MOLWEIGHT>
445.53

>  <ALOGP>
0.14

>  <PSA>
111.46

>  <STANDARD_VALUE>
18

>  <IC50>
1.744727495

$$$$
n13

  
 49 52  0  0  1  0  0  0  0  0999 V2000
    4.8787   -1.2692   -2.9106 C   0  0  0
    4.8259   -0.5985   -1.5331 C   0  0  0
    3.7709    0.5143   -1.5630 C   0  0  0
    4.5335   -1.6221   -0.4185 C   0  0  1
    5.6359   -2.6569   -0.3095 C   0  0  0
    6.7261   -2.4904    0.2188 O   0  0  0
    5.2744   -3.8191   -0.9074 O   0  0  0
    4.5200   -0.9472    0.8982 N   0  0  0
    3.4764   -1.4581    2.1314 S   0  0  0
    3.3958   -2.9053    2.1266 O   0  0  0
    3.8054   -0.7410    3.3475 O   0  0  0
    1.9261   -0.8142    1.5626 C   0  0  0
    0.9785   -1.6800    1.0112 C   0  0  0
   -0.2533   -1.1857    0.5623 C   0  0  0
    1.6869    0.5571    1.7082 C   0  0  0
    0.4519    1.0089    1.2477 C   0  0  0
   -0.5209    0.1911    0.6818 C   0  0  0
    0.0236    2.3014    1.2835 O   0  0  0
   -1.2255    2.3249    0.7421 C   0  0  0
   -1.6113    1.0488    0.3528 C   0  0  0
   -2.8832    0.8824   -0.2314 C   0  0  0
   -3.7273    1.9993   -0.4041 C   0  0  0
   -3.2786    3.2670    0.0080 C   0  0  0
   -2.0188    3.4574    0.5907 C   0  0  0
   -5.0536    1.8265   -1.0146 C   0  0  0
   -5.5354    0.8410   -1.8654 C   0  0  0
   -6.8902    1.1262   -2.1622 C   0  0  0
   -7.2196    2.2753   -1.4856 C   0  0  0
   -6.1105    2.6887   -0.7965 N   0  0  0
    3.5732   -2.1194   -0.5929 H   0  0  0
   -6.0814    3.5044   -0.2010 H   0  0  0
    5.6976   -1.9927   -2.9707 H   0  0  0
    3.9425   -1.7927   -3.1328 H   0  0  0
    5.0456   -0.5267   -3.6986 H   0  0  0
    5.8029   -0.1306   -1.3519 H   0  0  0
    3.7814    1.0982   -0.6374 H   0  0  0
    3.9638    1.2111   -2.3859 H   0  0  0
    2.7646    0.1033   -1.6976 H   0  0  0
    5.9948   -4.4803   -0.8328 H   0  0  0
    5.2919   -0.3083    1.1189 H   0  0  0
    1.1771   -2.7438    0.9120 H   0  0  0
   -0.9855   -1.8608    0.1289 H   0  0  0
    2.4110    1.2387    2.1383 H   0  0  0
   -3.2004   -0.1120   -0.5335 H   0  0  0
   -3.9034    4.1477   -0.1288 H   0  0  0
   -1.6801    4.4381    0.9035 H   0  0  0
   -4.9677    0.0014   -2.2438 H   0  0  0
   -7.5517    0.5545   -2.7980 H   0  0  0
   -8.1431    2.8346   -1.4304 H   0  0  0
  1  2  1  0
  2  3  1  0
  4  2  1  6
  4  5  1  0
  4  8  1  0
  5  6  2  0
  5  7  1  0
  8  9  1  0
  9 10  2  0
  9 11  2  0
  9 12  1  0
 12 13  1  0
 12 15  2  0
 13 14  2  0
 14 17  1  0
 15 16  1  0
 16 17  2  0
 16 18  1  0
 17 20  1  0
 18 19  1  0
 19 24  1  0
 19 20  2  0
 20 21  1  0
 21 22  2  0
 22 23  1  0
 22 25  1  0
 23 24  2  0
 25 29  1  0
 25 26  2  0
 26 27  1  0
 27 28  2  0
 28 29  1  0
  1 32  1  0
  1 33  1  0
  1 34  1  0
  2 35  1  0
  3 36  1  0
  3 37  1  0
  3 38  1  0
  4 30  1  0
  7 39  1  0
  8 40  1  0
 13 41  1  0
 14 42  1  0
 15 43  1  0
 21 44  1  0
 23 45  1  0
 24 46  1  0
 26 47  1  0
 27 48  1  0
 28 49  1  0
 29 31  1  0
M  END
>  <CMPD_CHEMBLID>
CHEMBL1935290

>  <COMPOUND_KEY>
25

>  <MOLWEIGHT>
412.46

>  <ALOGP>
3.96

>  <PSA>
120.78

>  <STANDARD_VALUE>
0.4

>  <IC50>
3.397940009

$$$$
n25

  
 62 66  0  0  1  0  0  0  0  0999 V2000
    5.9554   -4.9531    1.0001 C   0  0  0
    6.5620   -3.6053    0.5939 C   0  0  0
    7.6228   -3.8433   -0.4882 C   0  0  0
    5.4805   -2.6206    0.1079 C   0  0  1
    4.4806   -2.3070    1.2027 C   0  0  0
    4.6637   -1.5454    2.1417 O   0  0  0
    3.3291   -3.0005    1.0267 O   0  0  0
    6.1061   -1.3185   -0.2233 N   0  0  0
    5.6667   -0.4664   -1.6227 S   0  0  0
    5.7399   -1.3600   -2.7620 O   0  0  0
    6.3689    0.8016   -1.6364 O   0  0  0
    3.9587   -0.1095   -1.3144 C   0  0  0
    2.9684   -0.8093   -2.0078 C   0  0  0
    1.6145   -0.5371   -1.7712 C   0  0  0
    3.6524    0.8901   -0.3837 C   0  0  0
    2.2955    1.1284   -0.1756 C   0  0  0
    1.2712    0.4530   -0.8314 C   0  0  0
    1.7813    2.0448    0.6909 O   0  0  0
    0.4251    1.9663    0.5999 C   0  0  0
    0.0547    0.9990   -0.3261 C   0  0  0
   -1.3187    0.7779   -0.5531 C   0  0  0
   -2.2705    1.5364    0.1585 C   0  0  0
   -1.8376    2.5018    1.0835 C   0  0  0
   -0.4785    2.7378    1.3243 C   0  0  0
   -3.6975    1.3257   -0.0589 C   0  0  0
   -4.2021    0.4267   -0.9213 N   0  0  0
   -5.5808    0.5788   -0.7923 O   0  0  0
   -5.7767    1.5561    0.1367 C   0  0  0
   -4.6584    2.0465    0.6170 N   0  0  0
   -7.1864    1.9100    0.4580 C   0  0  0
   -7.4689    3.3789    0.1121 C   0  0  0
   -8.8955    3.7792    0.4819 C   0  0  0
   -9.1997    3.4875    1.9483 C   0  0  0
   -8.9196    2.0298    2.3013 C   0  0  0
   -7.4931    1.6256    1.9353 C   0  0  0
    4.9609   -3.0221   -0.7693 H   0  0  0
    6.7388   -5.6573    1.3005 H   0  0  0
    5.2759   -4.8441    1.8512 H   0  0  0
    5.3969   -5.4023    0.1719 H   0  0  0
    7.0675   -3.1867    1.4746 H   0  0  0
    8.3724   -4.5648   -0.1454 H   0  0  0
    7.1709   -4.2355   -1.4057 H   0  0  0
    8.1532   -2.9190   -0.7386 H   0  0  0
    2.6902   -2.7906    1.7406 H   0  0  0
    6.5703   -0.8155    0.5420 H   0  0  0
    3.2230   -1.5787   -2.7318 H   0  0  0
    0.8468   -1.0873   -2.3077 H   0  0  0
    4.4109    1.4424    0.1581 H   0  0  0
   -1.6223    0.0242   -1.2749 H   0  0  0
   -2.5603    3.0959    1.6410 H   0  0  0
   -0.1491    3.4833    2.0385 H   0  0  0
   -7.8510    1.2836   -0.1531 H   0  0  0
   -7.3099    3.5509   -0.9599 H   0  0  0
   -6.7640    4.0353    0.6397 H   0  0  0
   -9.6038    3.2336   -0.1537 H   0  0  0
   -9.0425    4.8463    0.2804 H   0  0  0
  -10.2483    3.7236    2.1614 H   0  0  0
   -8.5892    4.1404    2.5842 H   0  0  0
   -9.6293    1.3827    1.7712 H   0  0  0
   -9.0835    1.8723    3.3733 H   0  0  0
   -6.7896    2.1692    2.5802 H   0  0  0
   -7.3512    0.5592    2.1512 H   0  0  0
  1  2  1  0
  2  3  1  0
  4  2  1  1
  4  5  1  0
  4  8  1  0
  5  6  2  0
  5  7  1  0
  8  9  1  0
  9 10  2  0
  9 11  2  0
  9 12  1  0
 12 13  1  0
 12 15  2  0
 13 14  2  0
 14 17  1  0
 15 16  1  0
 16 17  2  0
 16 18  1  0
 17 20  1  0
 18 19  1  0
 19 24  1  0
 19 20  2  0
 20 21  1  0
 21 22  2  0
 22 23  1  0
 22 25  1  0
 23 24  2  0
 25 29  1  0
 25 26  2  0
 26 27  1  0
 27 28  1  0
 28 29  2  0
 28 30  1  0
 30 35  1  0
 30 31  1  0
 31 32  1  0
 32 33  1  0
 33 34  1  0
 34 35  1  0
  1 37  1  0
  1 38  1  0
  1 39  1  0
  2 40  1  0
  3 41  1  0
  3 42  1  0
  3 43  1  0
  4 36  1  0
  7 44  1  0
  8 45  1  0
 13 46  1  0
 14 47  1  0
 15 48  1  0
 21 49  1  0
 23 50  1  0
 24 51  1  0
 30 52  1  0
 31 53  1  0
 31 54  1  0
 32 55  1  0
 32 56  1  0
 33 57  1  0
 33 58  1  0
 34 59  1  0
 34 60  1  0
 35 61  1  0
 35 62  1  0
M  END
>  <CMPD_CHEMBLID>
CHEMBL1935302

>  <COMPOUND_KEY>
42

>  <MOLWEIGHT>
497.56

>  <ALOGP>
4.83

>  <PSA>
143.9

>  <STANDARD_VALUE>
7.2

>  <IC50>
2.142667504

$$$$